<?xml version="1.0" encoding="UTF-8"?>

<!-- generated on 2024-05-08 17:38:22.508348 by osmWebWizard.py v1_19_0+0000-baa66a0f364
<configuration>
    <net-file value="C:\Users\USUARIO\Sumo\2024-05-08-17-38-10\osm.net.xml.gz"/>
    <ptlines-file value="C:\Users\USUARIO\Sumo\2024-05-08-17-38-10\osm_ptlines.xml"/>
    <ptstops-file value="C:\Users\USUARIO\Sumo\2024-05-08-17-38-10\osm_stops.add.xml"/>
    <output-file value="C:\Users\USUARIO\Sumo\2024-05-08-17-38-10\osm_pt.rou.xml"/>
    <stopinfos-file value="C:\Users\USUARIO\Sumo\2024-05-08-17-38-10\stopinfos.xml"/>
    <routes-file value="C:\Users\USUARIO\Sumo\2024-05-08-17-38-10\vehroutes.xml"/>
    <trips-file value="C:\Users\USUARIO\Sumo\2024-05-08-17-38-10\trips.trips.xml"/>
    <min-stops value="0"/>
    <extend-to-fringe value="True"/>
    <random-begin value="True"/>
    <seed value="42"/>
    <ignore-errors value="True"/>
    <vtype-prefix value="pt_"/>
    <verbose value="True"/>
</configuration>
-->

<routes xmlns:xsi="http://www.w3.org/2001/XMLSchema-instance" xsi:noNamespaceSchemaLocation="http://sumo.dlr.de/xsd/routes_file.xsd">
    <vType id="pt_bus" vClass="bus"/>
    <vType id="pt_tram" vClass="tram"/>
    <vType id="pt_train" vClass="rail"/>
    <vType id="pt_subway" vClass="rail_urban"/>
    <vType id="pt_light_rail" vClass="rail_urban"/>
    <vType id="pt_monorail" vClass="rail_urban"/>
    <vType id="pt_trolleybus" vClass="bus"/>
    <vType id="pt_minibus" vClass="bus"/>
    <vType id="pt_share_taxi" vClass="taxi"/>
    <vType id="pt_aerialway" vClass="rail_urban" length="2.5" width="2" personCapacity="4"/>
    <vType id="pt_ferry" vClass="ship"/>
    <route id="pt_bus_Albrook_-_Vía_España_-_Gran_Estación:0" edges="660840509 265035146#0 265035146#1 382351216#0 382351216#1 382351216#2 382351216#3 31845292#0 31845292#1 31845292#2 31845292#3 618968690#0 618968690#1 618965295#3 618965295#4 618965295#5 618965294#0 618965294#1 618965294#2 618965294#3 618965294#4 557087597#0 557087597#1 557087597#2 265035149 265035150 -265035162#0 -265035161" >
        <stop busStop="-356508487" duration="20" until="188.0"/> <!-- Cruce Vista Hermosa -->
    </route>
    <route id="pt_bus_Tocumen_-_Via_España_-_Albrook:0" edges="158187043#0 158187043#1 158187043#2 158187043#3 557053863#0 557053863#1 557053863#2 557053863#3 557053863#4 557053863#6 557053863#7 557053863#8 557053863#9 557053863#10 557053863#10-AddedOffRampEdge 557053863#11" >
        <stop busStop="2701746132" duration="20" until="45.0"/> <!-- Obarrio -->
    </route>
    <route id="pt_bus_Alcalde_Díaz_-_Via_España_-_Estación_Marañón:0" edges="158187043#0 158187043#1 158187043#2 158187043#3 557053863#0 557053863#1 557053863#2 557053863#3 557053863#4 557053863#6 557053863#7 557053863#8 557053863#9 557053863#10 557053863#10-AddedOffRampEdge 557053863#11" >
        <stop busStop="2701746132" duration="20" until="46.0"/> <!-- Obarrio -->
    </route>
    <route id="pt_bus_Albrook_-_Via_España_-_Los_Andes:0" edges="660840509 265035146#0 265035146#1 382351216#0 382351216#1 382351216#2 382351216#3 31845292#0 31845292#1 31845292#2 31845292#3 618968690#0 618968690#1 618965295#3 618965295#4 618965295#5 618965294#0 618965294#1 618965294#2 618965294#3 618965294#4 557087597#0 557087597#1 557087597#2 265035149 265035150 -265035162#0 -265035161" >
        <stop busStop="-356508487" duration="20" until="203.0"/> <!-- Cruce Vista Hermosa -->
    </route>
    <route id="pt_subway_L1:0" color="red" edges="-1257873220#0" >
        <stop busStop="-2618155816" duration="20" until="48.0"/> <!-- San Miguelito -->
        <stop busStop="2618155178" duration="20" until="133.0"/> <!-- Pueblo Nuevo -->
        <stop busStop="2618155177" duration="20" until="215.0"/> <!-- 12 de Octubre -->
        <stop busStop="3529301119" duration="20" until="300.0"/> <!-- El Ingenio -->
        <stop busStop="3529301122" duration="20" until="392.0"/> <!-- Fernández de Córdoba -->
        <stop busStop="2618155175" duration="20" until="477.0"/> <!-- Vía Argentina -->
        <stop busStop="2618155174" duration="20" until="556.0"/> <!-- Iglesia del Carmen -->
        <stop busStop="2618151444" duration="20" until="651.0"/> <!-- Santo Tomás -->
        <stop busStop="2618136969" duration="20" until="719.0"/> <!-- Lotería -->
        <stop busStop="5208805274" duration="20" until="796.0"/> <!-- Cinco de Mayo -->
    </route>
    <route id="pt_subway_L2:0" color="green" edges="684868237" >
        <stop busStop="6417104467" duration="20" until="99.0"/> <!-- Don Bosco -->
        <stop busStop="6416942637" duration="20" until="184.0"/> <!-- Pedregal - Las Acacias -->
        <stop busStop="6416942690" duration="20" until="302.0"/> <!-- San Antonio -->
        <stop busStop="6416933278" duration="20" until="376.0"/> <!-- Cerro Viento -->
        <stop busStop="6416942721" duration="20" until="454.0"/> <!-- Brisas Del Golf -->
        <stop busStop="6416942751" duration="20" until="557.0"/> <!-- El Crisol -->
        <stop busStop="6416942791" duration="20" until="652.0"/> <!-- Villa Lucre -->
        <stop busStop="6416933276" duration="20" until="749.0"/> <!-- Cincuentenario -->
        <stop busStop="6416933275" duration="20" until="828.0"/> <!-- Paraiso -->
        <stop busStop="6416933273" duration="20" until="901.0"/> <!-- San Miguelito -->
    </route>
    <route id="pt_subway_L2:1" color="green" edges="684868250" >
        <stop busStop="6416933272" duration="20" until="59.0"/> <!-- San Miguelito -->
        <stop busStop="6416933274" duration="20" until="133.0"/> <!-- Paraiso -->
        <stop busStop="6416933277" duration="20" until="212.0"/> <!-- Cincuentenario -->
        <stop busStop="6416942785" duration="20" until="309.0"/> <!-- Villa Lucre -->
        <stop busStop="6416942764" duration="20" until="405.0"/> <!-- El Crisol -->
        <stop busStop="6416942736" duration="20" until="507.0"/> <!-- Brisas Del Golf -->
        <stop busStop="6416933279" duration="20" until="585.0"/> <!-- Cerro Viento -->
        <stop busStop="6416942683" duration="20" until="659.0"/> <!-- San Antonio -->
        <stop busStop="6416942636" duration="20" until="777.0"/> <!-- Pedregal - Las Acacias -->
        <stop busStop="6417104466" duration="20" until="862.0"/> <!-- Don Bosco -->
    </route>
    <route id="pt_subway_L1:1" color="red" edges="-346387795" >
        <stop busStop="-5208805274" duration="20" until="48.0"/> <!-- Cinco de Mayo -->
        <stop busStop="-2618136969" duration="20" until="125.0"/> <!-- Lotería -->
        <stop busStop="-2618151444" duration="20" until="193.0"/> <!-- Santo Tomás -->
        <stop busStop="-2618155174" duration="20" until="288.0"/> <!-- Iglesia del Carmen -->
        <stop busStop="-2618155175" duration="20" until="367.0"/> <!-- Vía Argentina -->
        <stop busStop="-3529301122" duration="20" until="452.0"/> <!-- Fernández de Córdoba -->
        <stop busStop="-3529301119" duration="20" until="544.0"/> <!-- El Ingenio -->
        <stop busStop="-2618155177" duration="20" until="629.0"/> <!-- 12 de Octubre -->
        <stop busStop="-2618155178" duration="20" until="711.0"/> <!-- Pueblo Nuevo -->
        <stop busStop="2618155816" duration="20" until="796.0"/> <!-- San Miguelito -->
    </route>
    <flow id="pt_bus_Albrook_-_Vía_España_-_Gran_Estación:0" type="pt_bus" route="pt_bus_Albrook_-_Vía_España_-_Gran_Estación:0" begin="15.0" end="3615.0" period="600" line="Albrook_-_Vía_España_-_Gran_Estación:0" >
        <param key="name" value="Albrook - Vía España - Gran Estación"/>
        <param key="completeness" value="0.20"/>
    </flow>
    <flow id="pt_bus_Tocumen_-_Via_España_-_Albrook:0" type="pt_bus" route="pt_bus_Tocumen_-_Via_España_-_Albrook:0" begin="52.0" end="3652.0" period="600" line="Tocumen_-_Via_España_-_Albrook:0" >
        <param key="name" value="Tocumen - Via España - Albrook"/>
        <param key="completeness" value="0.14"/>
    </flow>
    <flow id="pt_bus_Alcalde_Díaz_-_Via_España_-_Estación_Marañón:0" type="pt_bus" route="pt_bus_Alcalde_Díaz_-_Via_España_-_Estación_Marañón:0" begin="133.0" end="3733.0" period="600" line="Alcalde_Díaz_-_Via_España_-_Estación_Marañón:0" >
        <param key="name" value="Alcalde Díaz - Via España - Estación Marañón"/>
        <param key="completeness" value="0.25"/>
    </flow>
    <flow id="pt_bus_Albrook_-_Via_España_-_Los_Andes:0" type="pt_bus" route="pt_bus_Albrook_-_Via_España_-_Los_Andes:0" begin="165.0" end="3765.0" period="600" line="Albrook_-_Via_España_-_Los_Andes:0" >
        <param key="name" value="Albrook - Via España - Los Andes"/>
        <param key="completeness" value="0.20"/>
    </flow>
    <flow id="pt_subway_L1:0" type="pt_subway" route="pt_subway_L1:0" begin="383.0" end="3983.0" period="600" line="L1:0" >
        <param key="name" value="Línea 1"/>
        <param key="completeness" value="0.71"/>
    </flow>
    <flow id="pt_subway_L2:0" type="pt_subway" route="pt_subway_L2:0" begin="441.0" end="4041.0" period="600" line="L2:0" >
        <param key="name" value="Línea 2 : Nuevo Tocumen → San Miguelito"/>
        <param key="completeness" value="0.62"/>
    </flow>
    <flow id="pt_subway_L2:1" type="pt_subway" route="pt_subway_L2:1" begin="535.0" end="4135.0" period="600" line="L2:1" >
        <param key="name" value="Línea 2 : San Miguelito → Nuevo Tocumen"/>
        <param key="completeness" value="0.62"/>
    </flow>
    <flow id="pt_subway_L1:1" type="pt_subway" route="pt_subway_L1:1" begin="1185.0" end="4785.0" period="600" line="L1:1" >
        <param key="name" value="Línea 1"/>
        <param key="completeness" value="0.71"/>
    </flow>
</routes>
