<?xml version="1.0" encoding="UTF-8"?>

<!-- generated on 2024-05-08 17:38:18 by Eclipse SUMO netconvert Version 1.19.0
<configuration xmlns:xsi="http://www.w3.org/2001/XMLSchema-instance" xsi:noNamespaceSchemaLocation="http://sumo.dlr.de/xsd/netconvertConfiguration.xsd">

    <input>
        <type-files value="${SUMO_HOME}/data/typemap/osmNetconvert.typ.xml,${SUMO_HOME}/data/typemap/osmNetconvertAerialway.typ.xml"/>
        <osm-files value="osm_bbox.osm.xml.gz"/>
    </input>

    <output>
        <output-file value="osm.net.xml.gz"/>
        <output.street-names value="true"/>
        <output.original-names value="true"/>
        <ptstop-output value="osm_stops.add.xml"/>
        <ptline-output value="osm_ptlines.xml"/>
    </output>

    <projection>
        <proj.utm value="true"/>
    </projection>

    <processing>
        <geometry.remove value="true"/>
        <roundabouts.guess value="true"/>
    </processing>

    <tls_building>
        <tls.discard-simple value="true"/>
        <tls.join value="true"/>
        <tls.guess-signals value="true"/>
        <tls.default-type value="actuated"/>
    </tls_building>

    <ramp_guessing>
        <ramps.guess value="true"/>
    </ramp_guessing>

    <junctions>
        <junctions.join value="true"/>
        <junctions.corner-detail value="5"/>
    </junctions>

    <railway>
        <railway.topology.repair value="true"/>
    </railway>

</configuration>
-->

<additional xmlns:xsi="http://www.w3.org/2001/XMLSchema-instance" xsi:noNamespaceSchemaLocation="http://sumo.dlr.de/xsd/additional_file.xsd">
    <busStop id="-2618136969" name="Lotería" lane="-346387795_0" startPos="830.19" endPos="1030.19" friendlyPos="true"/>
    <busStop id="-2618151444" name="Santo Tomás" lane="-346387795_0" startPos="1384.69" endPos="1584.69" friendlyPos="true"/>
    <busStop id="-2618155174" name="Iglesia del Carmen" lane="-346387795_0" startPos="2677.66" endPos="2877.66" friendlyPos="true">
        <access lane="37959103#0_0" pos="9.54" length="283.85" friendlyPos="1"/>
        <access lane="557053863#11_0" pos="188.29" length="1.29" friendlyPos="1"/>
    </busStop>
    <busStop id="-2618155175" name="Vía Argentina" lane="-346387795_0" startPos="3532.24" endPos="3732.24" friendlyPos="true">
        <access lane="-37958928_0" pos="228.84" length="94.72" friendlyPos="1"/>
        <access lane="37958928_0" pos="0.00" length="91.98" friendlyPos="1"/>
        <access lane="37959233_0" pos="0.00" length="84.32" friendlyPos="1"/>
        <access lane="557053863#3_0" pos="146.58" length="1.76" friendlyPos="1"/>
        <access lane="557053863#4_0" pos="0.00" length="90.54" friendlyPos="1"/>
    </busStop>
    <busStop id="-2618155177" name="12 de Octubre" lane="-346387795_0" startPos="6807.74" endPos="7007.74" friendlyPos="true">
        <access lane="1053788700#5_0" pos="88.58" length="95.19" friendlyPos="1"/>
        <access lane="1053788700#6_0" pos="50.37" length="13.03" friendlyPos="1"/>
        <access lane="555297608#0_0" pos="0.00" length="79.54" friendlyPos="1"/>
        <access lane="623167760#15_0" pos="69.50" length="21.79" friendlyPos="1"/>
        <access lane="908251267#1_0" pos="68.36" length="87.43" friendlyPos="1"/>
    </busStop>
    <busStop id="-2618155178" name="Pueblo Nuevo" lane="-346387795_0" startPos="7755.66" endPos="7955.66" friendlyPos="true">
        <access lane="-1264199073#4_0" pos="0.00" length="80.03" friendlyPos="1"/>
        <access lane="-623167761_0" pos="0.00" length="89.94" friendlyPos="1"/>
        <access lane="1264199073#4_0" pos="9.31" length="75.87" friendlyPos="1"/>
        <access lane="555297608#9_0" pos="57.70" length="15.60" friendlyPos="1"/>
        <access lane="623167760#3_0" pos="71.18" length="18.68" friendlyPos="1"/>
    </busStop>
    <busStop id="-2618155816" name="San Miguelito" lane="-1257873220#0_0" startPos="21.60" endPos="221.60" friendlyPos="true">
        <access lane="559463923#0_0" pos="71.64" length="21.73" friendlyPos="1"/>
        <access lane="559463923#1_0" pos="2.68" length="25.64" friendlyPos="1"/>
        <access lane="622362429#5-AddedOnRampEdge_0" pos="36.48" length="19.03" friendlyPos="1"/>
        <access lane="684887070#0_0" pos="19.03" length="14.57" friendlyPos="1"/>
        <access lane="701417247#2_0" pos="3.39" length="24.97" friendlyPos="1"/>
    </busStop>
    <busStop id="-3529301119" name="El Ingenio" lane="-346387795_0" startPos="5777.80" endPos="5977.80" friendlyPos="true">
        <access lane="1039486230_0" pos="12.78" length="14.18" friendlyPos="1"/>
        <access lane="386254129_0" pos="22.44" length="25.20" friendlyPos="1"/>
        <access lane="387423177#1_0" pos="98.12" length="24.18" friendlyPos="1"/>
        <access lane="387423177#2_0" pos="10.84" length="16.71" friendlyPos="1"/>
        <access lane="623167760#25_0" pos="41.09" length="22.10" friendlyPos="1"/>
    </busStop>
    <busStop id="-3529301122" name="Fernández de Córdoba" lane="-346387795_0" startPos="4555.33" endPos="4755.33" friendlyPos="true">
        <access lane="-158193614#2_0" pos="0.00" length="37.76" friendlyPos="1"/>
        <access lane="-158193614#3_0" pos="31.39" length="1.19" friendlyPos="1"/>
        <access lane="-158193620#0_0" pos="12.69" length="37.30" friendlyPos="1"/>
        <access lane="158193614#3_0" pos="0.00" length="13.25" friendlyPos="1"/>
        <access lane="158193620#0_0" pos="0.00" length="36.98" friendlyPos="1"/>
    </busStop>
    <busStop id="-356508487" name="Cruce Vista Hermosa" lane="-265035161_0" startPos="52.87" endPos="67.87" friendlyPos="true" lines="Albrook - Vía España - Gran Estación Albrook - Via España - Los Andes"/>
    <busStop id="-5208805274" name="Cinco de Mayo" lane="-346387795_0" startPos="24.21" endPos="224.21" friendlyPos="true"/>
    <busStop id="-6416933272" name="San Miguelito" lane="-618627370_0" startPos="11645.66" endPos="11845.66" friendlyPos="true">
        <access lane="1232839198#1_0" pos="30.61" length="74.33" friendlyPos="1"/>
        <access lane="153743054#1-AddedOnRampEdge_0" pos="43.69" length="28.33" friendlyPos="1"/>
        <access lane="29425444#0_0" pos="53.64" length="43.14" friendlyPos="1"/>
        <access lane="620919159_0" pos="149.54" length="67.66" friendlyPos="1"/>
        <access lane="701417246_0" pos="145.61" length="0.32" friendlyPos="1"/>
    </busStop>
    <busStop id="-6416933274" name="Paraiso" lane="-618627370_0" startPos="10913.96" endPos="11113.96" friendlyPos="true">
        <access lane="29425444#1_0" pos="488.91" length="22.55" friendlyPos="1"/>
    </busStop>
    <busStop id="-6416933277" name="Cincuentenario" lane="-618627370_0" startPos="10054.37" endPos="10254.37" friendlyPos="true">
        <access lane="29425444#1_0" pos="1329.70" length="57.93" friendlyPos="1"/>
    </busStop>
    <busStop id="-6416933279" name="Cerro Viento" lane="-618627370_0" startPos="5029.63" endPos="5229.63" friendlyPos="true"/>
    <busStop id="-6416942636" name="Pedregal - Las Acacias" lane="-618627370_0" startPos="2354.75" endPos="2554.75" friendlyPos="true"/>
    <busStop id="-6416942683" name="San Antonio" lane="-618627370_0" startPos="4307.53" endPos="4507.53" friendlyPos="true"/>
    <busStop id="-6416942736" name="Brisas Del Golf" lane="-618627370_0" startPos="5870.31" endPos="6070.31" friendlyPos="true"/>
    <busStop id="-6416942764" name="El Crisol" lane="-618627370_0" startPos="7361.53" endPos="7561.53" friendlyPos="true"/>
    <busStop id="-6416942785" name="Villa Lucre" lane="-618627370_0" startPos="8691.62" endPos="8891.62" friendlyPos="true"/>
    <busStop id="-6417104466" name="Don Bosco" lane="-618627370_0" startPos="1315.65" endPos="1515.65" friendlyPos="true"/>
    <busStop id="2618136969" name="Lotería" lane="-1257873220#0_0" startPos="7978.01" endPos="8178.01" friendlyPos="true" lines="L1"/>
    <busStop id="2618151444" name="Santo Tomás" lane="-1257873220#0_0" startPos="7423.52" endPos="7623.52" friendlyPos="true" lines="L1"/>
    <busStop id="2618155174" name="Iglesia del Carmen" lane="-1257873220#0_0" startPos="6130.55" endPos="6330.55" friendlyPos="true" lines="L1">
        <access lane="37959103#0_0" pos="9.54" length="283.85" friendlyPos="1"/>
        <access lane="557053863#11_0" pos="188.29" length="1.29" friendlyPos="1"/>
    </busStop>
    <busStop id="2618155175" name="Vía Argentina" lane="-1257873220#0_0" startPos="5275.97" endPos="5475.97" friendlyPos="true" lines="L1">
        <access lane="-37958928_0" pos="228.84" length="94.72" friendlyPos="1"/>
        <access lane="37958928_0" pos="0.00" length="91.98" friendlyPos="1"/>
        <access lane="37959233_0" pos="0.00" length="84.32" friendlyPos="1"/>
        <access lane="557053863#3_0" pos="146.58" length="1.76" friendlyPos="1"/>
        <access lane="557053863#4_0" pos="0.00" length="90.54" friendlyPos="1"/>
    </busStop>
    <busStop id="2618155177" name="12 de Octubre" lane="-1257873220#0_0" startPos="2000.47" endPos="2200.47" friendlyPos="true" lines="L1">
        <access lane="1053788700#5_0" pos="88.58" length="95.19" friendlyPos="1"/>
        <access lane="1053788700#6_0" pos="50.37" length="13.03" friendlyPos="1"/>
        <access lane="555297608#0_0" pos="0.00" length="79.54" friendlyPos="1"/>
        <access lane="623167760#15_0" pos="69.50" length="21.79" friendlyPos="1"/>
        <access lane="908251267#1_0" pos="68.36" length="87.43" friendlyPos="1"/>
    </busStop>
    <busStop id="2618155178" name="Pueblo Nuevo" lane="-1257873220#0_0" startPos="1052.55" endPos="1252.55" friendlyPos="true" lines="L1">
        <access lane="-1264199073#4_0" pos="0.00" length="80.03" friendlyPos="1"/>
        <access lane="-623167761_0" pos="0.00" length="89.94" friendlyPos="1"/>
        <access lane="1264199073#4_0" pos="9.31" length="75.87" friendlyPos="1"/>
        <access lane="555297608#9_0" pos="57.70" length="15.60" friendlyPos="1"/>
        <access lane="623167760#3_0" pos="71.18" length="18.68" friendlyPos="1"/>
    </busStop>
    <busStop id="2618155816" name="San Miguelito" lane="-346387795_0" startPos="8786.61" endPos="8986.61" friendlyPos="true" lines="L1">
        <access lane="559463923#0_0" pos="71.64" length="21.73" friendlyPos="1"/>
        <access lane="559463923#1_0" pos="2.68" length="25.64" friendlyPos="1"/>
        <access lane="622362429#5-AddedOnRampEdge_0" pos="36.48" length="19.03" friendlyPos="1"/>
        <access lane="684887070#0_0" pos="19.03" length="14.57" friendlyPos="1"/>
        <access lane="701417247#2_0" pos="3.39" length="24.97" friendlyPos="1"/>
    </busStop>
    <busStop id="2694590415" name="Furniture City" lane="158193600#2_0" startPos="29.91" endPos="44.91" friendlyPos="true"/>
    <busStop id="2701746132" name="Obarrio" lane="158187043#0_0" startPos="66.36" endPos="81.36" friendlyPos="true" lines="Tocumen - Via España - Albrook Alcalde Díaz - Via España - Estación Marañón"/>
    <busStop id="3529301119" name="El Ingenio" lane="-1257873220#0_0" startPos="3030.41" endPos="3230.41" friendlyPos="true" lines="L1">
        <access lane="1039486230_0" pos="12.78" length="14.18" friendlyPos="1"/>
        <access lane="386254129_0" pos="22.44" length="25.20" friendlyPos="1"/>
        <access lane="387423177#1_0" pos="98.12" length="24.18" friendlyPos="1"/>
        <access lane="387423177#2_0" pos="10.84" length="16.71" friendlyPos="1"/>
        <access lane="623167760#25_0" pos="41.09" length="22.10" friendlyPos="1"/>
    </busStop>
    <busStop id="3529301122" name="Fernández de Córdoba" lane="-1257873220#0_0" startPos="4252.88" endPos="4452.88" friendlyPos="true" lines="L1">
        <access lane="-158193614#2_0" pos="0.00" length="37.76" friendlyPos="1"/>
        <access lane="-158193614#3_0" pos="31.39" length="1.19" friendlyPos="1"/>
        <access lane="-158193620#0_0" pos="12.69" length="37.30" friendlyPos="1"/>
        <access lane="158193614#3_0" pos="0.00" length="13.25" friendlyPos="1"/>
        <access lane="158193620#0_0" pos="0.00" length="36.98" friendlyPos="1"/>
    </busStop>
    <busStop id="3578426430" name="La Locería I" lane="613464588_0" startPos="0.00" endPos="7.87" friendlyPos="true"/>
    <busStop id="5208805274" name="Cinco de Mayo" lane="-1257873220#0_0" startPos="8783.99" endPos="8983.99" friendlyPos="true" lines="L1"/>
    <busStop id="5369728506" lane="556675647_0" startPos="0.86" endPos="15.86" friendlyPos="true"/>
    <busStop id="6416933272" name="San Miguelito" lane="684868250_0" startPos="209.60" endPos="409.60" friendlyPos="true" lines="L2">
        <access lane="1232839198#1_0" pos="30.61" length="74.33" friendlyPos="1"/>
        <access lane="153743054#1-AddedOnRampEdge_0" pos="43.69" length="28.33" friendlyPos="1"/>
        <access lane="29425444#0_0" pos="53.64" length="43.14" friendlyPos="1"/>
        <access lane="620919159_0" pos="149.54" length="67.66" friendlyPos="1"/>
        <access lane="701417246_0" pos="145.61" length="0.32" friendlyPos="1"/>
    </busStop>
    <busStop id="6416933273" name="San Miguelito" lane="684868237_0" startPos="11587.05" endPos="11787.05" friendlyPos="true" lines="L2">
        <access lane="153743054#1-AddedOnRampEdge_0" pos="44.12" length="8.75" friendlyPos="1"/>
        <access lane="29425444#0_0" pos="54.02" length="23.56" friendlyPos="1"/>
        <access lane="44820696#2_0" pos="0.00" length="56.70" friendlyPos="1"/>
        <access lane="620919159_0" pos="148.87" length="48.10" friendlyPos="1"/>
        <access lane="701417246_0" pos="138.72" length="9.50" friendlyPos="1"/>
    </busStop>
    <busStop id="6416933274" name="Paraiso" lane="684868250_0" startPos="941.30" endPos="1141.30" friendlyPos="true" lines="L2">
        <access lane="29425444#1_0" pos="488.91" length="22.55" friendlyPos="1"/>
    </busStop>
    <busStop id="6416933275" name="Paraiso" lane="684868237_0" startPos="10889.23" endPos="11089.23" friendlyPos="true" lines="L2">
        <access lane="29425444#1_0" pos="488.71" length="13.85" friendlyPos="1"/>
    </busStop>
    <busStop id="6416933276" name="Cincuentenario" lane="684868237_0" startPos="10035.34" endPos="10235.34" friendlyPos="true" lines="L2">
        <access lane="29425444#1_0" pos="1329.64" length="50.12" friendlyPos="1"/>
    </busStop>
    <busStop id="6416933277" name="Cincuentenario" lane="684868250_0" startPos="1800.89" endPos="2000.89" friendlyPos="true" lines="L2">
        <access lane="29425444#1_0" pos="1329.70" length="57.93" friendlyPos="1"/>
    </busStop>
    <busStop id="6416933278" name="Cerro Viento" lane="684868237_0" startPos="5008.00" endPos="5208.00" friendlyPos="true" lines="L2"/>
    <busStop id="6416933279" name="Cerro Viento" lane="684868250_0" startPos="6825.63" endPos="7025.63" friendlyPos="true" lines="L2"/>
    <busStop id="6416942636" name="Pedregal - Las Acacias" lane="684868250_0" startPos="9500.51" endPos="9700.51" friendlyPos="true" lines="L2"/>
    <busStop id="6416942637" name="Pedregal - Las Acacias" lane="684868237_0" startPos="2334.15" endPos="2534.15" friendlyPos="true" lines="L2"/>
    <busStop id="6416942683" name="San Antonio" lane="684868250_0" startPos="7547.73" endPos="7747.73" friendlyPos="true" lines="L2"/>
    <busStop id="6416942690" name="San Antonio" lane="684868237_0" startPos="4286.89" endPos="4486.89" friendlyPos="true" lines="L2"/>
    <busStop id="6416942721" name="Brisas Del Golf" lane="684868237_0" startPos="5849.80" endPos="6049.80" friendlyPos="true" lines="L2"/>
    <busStop id="6416942736" name="Brisas Del Golf" lane="684868250_0" startPos="5984.95" endPos="6184.95" friendlyPos="true" lines="L2"/>
    <busStop id="6416942751" name="El Crisol" lane="684868237_0" startPos="7375.34" endPos="7575.34" friendlyPos="true" lines="L2"/>
    <busStop id="6416942764" name="El Crisol" lane="684868250_0" startPos="4493.73" endPos="4693.73" friendlyPos="true" lines="L2"/>
    <busStop id="6416942785" name="Villa Lucre" lane="684868250_0" startPos="3163.64" endPos="3363.64" friendlyPos="true" lines="L2"/>
    <busStop id="6416942791" name="Villa Lucre" lane="684868237_0" startPos="8671.77" endPos="8871.77" friendlyPos="true" lines="L2"/>
    <busStop id="6417104466" name="Don Bosco" lane="684868250_0" startPos="10539.61" endPos="10739.61" friendlyPos="true" lines="L2"/>
    <busStop id="6417104467" name="Don Bosco" lane="684868237_0" startPos="1295.12" endPos="1495.12" friendlyPos="true" lines="L2"/>
</additional>
