<?xml version="1.0" encoding="UTF-8"?>

<!-- generated on 2024-05-08 21:39:08 by Eclipse SUMO netedit Version 1.19.0
-->

<routes xmlns:xsi="http://www.w3.org/2001/XMLSchema-instance" xsi:noNamespaceSchemaLocation="http://sumo.dlr.de/xsd/routes_file.xsd">
    <!-- Routes -->
    <route id="r_0" edges="E33">
        <stop lane="E33_0" startPos="28.92" endPos="38.92" duration="60.00"/>
        <stop lane="E33_0" startPos="27.86" endPos="37.86" duration="60.00"/>
        <stop lane="E33_0" startPos="45.13" endPos="55.13" duration="60.00"/>
        <stop lane="E33_0" startPos="16.89" endPos="26.89" duration="60.00"/>
        <stop lane="E33_0" startPos="31.98" endPos="41.98" duration="60.00"/>
    </route>
    <route id="r_1" edges="E27 E29 E32"/>
</routes>
