<?xml version="1.0" encoding="UTF-8"?>

<!-- generated on 2024-05-08 18:01:44.220154 by osmWebWizard.py v1_19_0+0000-baa66a0f364
<configuration>
    <net-file value="C:\Users\javie\Sumo\2024-05-08-17-59-43\osm.net.xml.gz"/>
    <output-trip-file value="C:\Users\javie\Sumo\2024-05-08-17-59-43\osm.passenger.trips.xml"/>
    <route-file value="C:\Users\javie\Sumo\2024-05-08-17-59-43\osm.passenger.rou.xml"/>
    <prefix value="veh"/>
    <trip-attributes value="departLane=&quot;best&quot;"/>
    <fringe-start-attributes value="departSpeed=&quot;max&quot;"/>
    <vehicle-class value="passenger"/>
    <lanes value="True"/>
    <fringe-factor value="5"/>
    <allow-fringe.min-length value="1000.0"/>
    <via-edge-types value="highway.motorway,highway.motorway_link,highway.trunk_link,highway.primary_link,highway.secondary_link,highway.tertiary_link"/>
    <min-distance value="300.0"/>
    <min-distance.fringe value="10.0"/>
    <remove-loops value="True"/>
    <validate value="True"/>
    <insertion-density value="12.0"/>
</configuration>
-->

<!-- generated on 2024-05-08 18:01:00 by Eclipse SUMO duarouter Version 1.19.0
<configuration xmlns:xsi="http://www.w3.org/2001/XMLSchema-instance" xsi:noNamespaceSchemaLocation="http://sumo.dlr.de/xsd/duarouterConfiguration.xsd">

    <input>
        <net-file value="C:\Users\javie\Sumo\2024-05-08-17-59-43\osm.net.xml.gz"/>
        <route-files value="C:\Users\javie\Sumo\2024-05-08-17-59-43\osm.passenger.trips.xml"/>
    </input>

    <output>
        <output-file value="C:\Users\javie\Sumo\2024-05-08-17-59-43\osm.passenger.trips.xml.tmp"/>
        <alternatives-output value="NUL"/>
        <write-trips value="true"/>
    </output>

    <processing>
        <remove-loops value="true"/>
    </processing>

    <time>
        <begin value="0.0"/>
        <end value="3600.0"/>
    </time>

    <report>
        <no-warnings value="true"/>
        <ignore-errors value="true"/>
        <no-step-log value="true"/>
    </report>

</configuration>
-->

<routes xmlns:xsi="http://www.w3.org/2001/XMLSchema-instance" xsi:noNamespaceSchemaLocation="http://sumo.dlr.de/xsd/routes_file.xsd">
    <vType id="veh_passenger" vClass="passenger"/>
    <trip id="veh0" type="veh_passenger" depart="0.00" departLane="best" from="31844801#1" to="-1266563737"/>
    <trip id="veh1" type="veh_passenger" depart="0.28" departLane="best" departSpeed="max" from="-620692295" to="-561370254#12"/>
    <trip id="veh3" type="veh_passenger" depart="0.83" departLane="best" from="620975539" to="-179840606#0"/>
    <trip id="veh4" type="veh_passenger" depart="1.11" departLane="best" from="147607966#14" to="-126771936#0"/>
    <trip id="veh5" type="veh_passenger" depart="1.38" departLane="best" from="-559496943#0" to="179875771#1"/>
    <trip id="veh6" type="veh_passenger" depart="1.66" departLane="best" from="620975965#2" to="-552686565#0"/>
    <trip id="veh7" type="veh_passenger" depart="1.94" departLane="best" from="372723807#0" to="26486938#0"/>
    <trip id="veh8" type="veh_passenger" depart="2.21" departLane="best" from="-561329251#1" to="301023177#1"/>
    <trip id="veh9" type="veh_passenger" depart="2.49" departLane="best" from="611236703#3" to="-1228886931#0"/>
    <trip id="veh10" type="veh_passenger" depart="2.76" departLane="best" from="607417857" to="550788818"/>
    <trip id="veh11" type="veh_passenger" depart="3.04" departLane="best" from="-82930727#2" to="-180592995"/>
    <trip id="veh12" type="veh_passenger" depart="3.32" departLane="best" from="-72197502" to="112620905#1"/>
    <trip id="veh13" type="veh_passenger" depart="3.59" departLane="best" from="-179875547#0" to="-179859669"/>
    <trip id="veh14" type="veh_passenger" depart="3.87" departLane="best" from="619843366#2" to="368138089#1"/>
    <trip id="veh15" type="veh_passenger" depart="4.15" departLane="best" from="607794386#0" to="556851003"/>
    <trip id="veh16" type="veh_passenger" depart="4.42" departLane="best" from="-179875550#0" to="82306606#15"/>
    <trip id="veh17" type="veh_passenger" depart="4.70" departLane="best" departSpeed="max" from="1257609971" to="265035151#1"/>
    <trip id="veh18" type="veh_passenger" depart="4.98" departLane="best" from="-619188398#1" to="37959248#0"/>
    <trip id="veh19" type="veh_passenger" depart="5.25" departLane="best" from="-619857307" to="265035145#0"/>
    <trip id="veh20" type="veh_passenger" depart="5.53" departLane="best" departSpeed="max" from="386257553" to="-152590611#1"/>
    <trip id="veh21" type="veh_passenger" depart="5.81" departLane="best" departSpeed="max" from="-564848737" to="-623142685#1"/>
    <trip id="veh22" type="veh_passenger" depart="6.08" departLane="best" from="-179860757" to="-600390414#2"/>
    <trip id="veh23" type="veh_passenger" depart="6.36" departLane="best" from="179875630#1" to="-620975542#0"/>
    <trip id="veh24" type="veh_passenger" depart="6.63" departLane="best" from="158193625#5" to="-1262652081#0"/>
    <trip id="veh25" type="veh_passenger" depart="6.91" departLane="best" from="-1228907207#0" to="556836450#2"/>
    <trip id="veh26" type="veh_passenger" depart="7.19" departLane="best" from="619847427#2" to="673417788"/>
    <trip id="veh27" type="veh_passenger" depart="7.46" departLane="best" from="-370324776#4" to="-372723807#5"/>
    <trip id="veh28" type="veh_passenger" depart="7.74" departLane="best" departSpeed="max" from="-386257551" to="-556850999"/>
    <trip id="veh29" type="veh_passenger" depart="8.02" departLane="best" from="-380279002#1" to="126771582#1"/>
    <trip id="veh31" type="veh_passenger" depart="8.57" departLane="best" from="-179876668#1" to="448373351"/>
    <trip id="veh32" type="veh_passenger" depart="8.85" departLane="best" from="619834153#4" to="593230835#1"/>
    <trip id="veh33" type="veh_passenger" depart="9.12" departLane="best" departSpeed="max" from="-564848741" to="679851961"/>
    <trip id="veh34" type="veh_passenger" depart="9.40" departLane="best" departSpeed="max" from="-64146492" to="-620965391#0"/>
    <trip id="veh35" type="veh_passenger" depart="9.68" departLane="best" from="556847744#0" to="697805212#1"/>
    <trip id="veh36" type="veh_passenger" depart="9.95" departLane="best" from="620962721#3" to="-82220764#0"/>
    <trip id="veh37" type="veh_passenger" depart="10.23" departLane="best" from="37959103#11" to="147613381"/>
    <trip id="veh38" type="veh_passenger" depart="10.50" departLane="best" from="622362429#3" to="179859653#0"/>
    <trip id="veh39" type="veh_passenger" depart="10.78" departLane="best" from="619834170#0" to="-618974096#6"/>
    <trip id="veh40" type="veh_passenger" depart="11.06" departLane="best" departSpeed="max" from="180427211" to="620712332#15"/>
    <trip id="veh41" type="veh_passenger" depart="11.33" departLane="best" from="223218414#1" to="622362429#11"/>
    <trip id="veh42" type="veh_passenger" depart="11.61" departLane="best" from="1264867962#0" to="-559496937#3"/>
    <trip id="veh43" type="veh_passenger" depart="11.89" departLane="best" departSpeed="max" from="86369626#0" to="179978268"/>
    <trip id="veh44" type="veh_passenger" depart="12.16" departLane="best" departSpeed="max" from="-179864069" to="-152590620"/>
    <trip id="veh45" type="veh_passenger" depart="12.44" departLane="best" from="-179875713#1" to="380228814"/>
    <trip id="veh46" type="veh_passenger" depart="12.72" departLane="best" from="-561370255#1" to="175973624#5"/>
    <trip id="veh47" type="veh_passenger" depart="12.99" departLane="best" departSpeed="max" from="-179835850" to="1268424340"/>
    <trip id="veh48" type="veh_passenger" depart="13.27" departLane="best" from="-860238557#4" to="180591720"/>
    <trip id="veh49" type="veh_passenger" depart="13.55" departLane="best" from="82106836#1" to="620961511#1"/>
    <trip id="veh50" type="veh_passenger" depart="13.82" departLane="best" from="1229515126#1" to="556833274#2"/>
    <trip id="veh51" type="veh_passenger" depart="14.10" departLane="best" from="382351216#21" to="223188912#0"/>
    <trip id="veh52" type="veh_passenger" depart="14.38" departLane="best" from="-619847424#2" to="382351216#12"/>
    <trip id="veh53" type="veh_passenger" depart="14.65" departLane="best" from="-179875736#2" to="179823482#7"/>
    <trip id="veh55" type="veh_passenger" depart="15.20" departLane="best" from="620962321" to="620960660#2"/>
    <trip id="veh56" type="veh_passenger" depart="15.48" departLane="best" departSpeed="max" from="179840602#0" to="-380685551"/>
    <trip id="veh57" type="veh_passenger" depart="15.76" departLane="best" from="622362429#20-AddedOnRampEdge" to="620967020#1"/>
    <trip id="veh58" type="veh_passenger" depart="16.03" departLane="best" from="621240397" to="380687739"/>
    <trip id="veh59" type="veh_passenger" depart="16.31" departLane="best" from="265170931#12" to="-180591735"/>
    <trip id="veh60" type="veh_passenger" depart="16.59" departLane="best" from="557053863#13" to="223218415"/>
    <trip id="veh61" type="veh_passenger" depart="16.86" departLane="best" from="559521687#5" to="-180591737#1"/>
    <trip id="veh62" type="veh_passenger" depart="17.14" departLane="best" departSpeed="max" from="-1079792690" to="860381920"/>
    <trip id="veh63" type="veh_passenger" depart="17.42" departLane="best" from="620964324#0" to="619834155#5"/>
    <trip id="veh64" type="veh_passenger" depart="17.69" departLane="best" from="623142723#10" to="-153750254"/>
    <trip id="veh65" type="veh_passenger" depart="17.97" departLane="best" from="620962889#0" to="701400747#2"/>
    <trip id="veh66" type="veh_passenger" depart="18.25" departLane="best" departSpeed="max" from="-179861362" to="179875565"/>
    <trip id="veh67" type="veh_passenger" depart="18.52" departLane="best" departSpeed="max" from="-179840666#1" to="-561369925#2"/>
    <trip id="veh68" type="veh_passenger" depart="18.80" departLane="best" from="557053863#23" to="-179875671"/>
    <trip id="veh69" type="veh_passenger" depart="19.07" departLane="best" from="179141127#1" to="265035146#0"/>
    <trip id="veh70" type="veh_passenger" depart="19.35" departLane="best" departSpeed="max" from="-619834171" to="620969874#1"/>
    <trip id="veh71" type="veh_passenger" depart="19.63" departLane="best" from="147613379#1" to="-556847714#0"/>
    <trip id="veh72" type="veh_passenger" depart="19.90" departLane="best" departSpeed="max" from="179875572#0" to="-556851006"/>
    <trip id="veh73" type="veh_passenger" depart="20.18" departLane="best" departSpeed="max" from="-555901001#1" to="-74099612#0"/>
    <trip id="veh74" type="veh_passenger" depart="20.46" departLane="best" from="860209444#7" to="383709063#0"/>
    <trip id="veh75" type="veh_passenger" depart="20.73" departLane="best" departSpeed="max" from="152587005" to="180568308"/>
    <trip id="veh76" type="veh_passenger" depart="21.01" departLane="best" from="180427216" to="-561370254#7"/>
    <trip id="veh77" type="veh_passenger" depart="21.29" departLane="best" from="557087597#2" to="298468942"/>
    <trip id="veh78" type="veh_passenger" depart="21.56" departLane="best" departSpeed="max" from="-568380204#1" to="-559521697#0"/>
    <trip id="veh79" type="veh_passenger" depart="21.84" departLane="best" from="179840705#3" to="380240079#0"/>
    <trip id="veh80" type="veh_passenger" depart="22.12" departLane="best" departSpeed="max" from="-564848741" to="622373965#5"/>
    <trip id="veh81" type="veh_passenger" depart="22.39" departLane="best" departSpeed="max" from="619857285#0" to="-179827878#1"/>
    <trip id="veh82" type="veh_passenger" depart="22.67" departLane="best" departSpeed="max" from="-600494469" to="386394889"/>
    <trip id="veh83" type="veh_passenger" depart="22.94" departLane="best" departSpeed="max" from="-557036241" to="-179875733#0"/>
    <trip id="veh84" type="veh_passenger" depart="23.22" departLane="best" departSpeed="max" from="64146231" to="268116611#0"/>
    <trip id="veh85" type="veh_passenger" depart="23.50" departLane="best" departSpeed="max" from="176424955" to="600882350"/>
    <trip id="veh86" type="veh_passenger" depart="23.77" departLane="best" from="607794386#3" to="-49155782#1"/>
    <trip id="veh87" type="veh_passenger" depart="24.05" departLane="best" from="-179875580" to="179816282#1"/>
    <trip id="veh88" type="veh_passenger" depart="24.33" departLane="best" from="147613382" to="179860760"/>
    <trip id="veh89" type="veh_passenger" depart="24.60" departLane="best" departSpeed="max" from="506040417#0" to="387405981#2-AddedOffRampEdge"/>
    <trip id="veh90" type="veh_passenger" depart="24.88" departLane="best" from="-82313991" to="-179859681"/>
    <trip id="veh91" type="veh_passenger" depart="25.16" departLane="best" departSpeed="max" from="126771580#0" to="1189452610#0"/>
    <trip id="veh92" type="veh_passenger" depart="25.43" departLane="best" from="-619857307" to="619188398#1"/>
    <trip id="veh93" type="veh_passenger" depart="25.71" departLane="best" departSpeed="max" from="-550962617" to="179835843#6"/>
    <trip id="veh94" type="veh_passenger" depart="25.99" departLane="best" from="147607966#14" to="-620977831#0"/>
    <trip id="veh95" type="veh_passenger" depart="26.26" departLane="best" from="611228554#5" to="631925574#0"/>
    <trip id="veh96" type="veh_passenger" depart="26.54" departLane="best" departSpeed="max" from="152590617" to="-620961517#1"/>
    <trip id="veh97" type="veh_passenger" depart="26.82" departLane="best" departSpeed="max" from="179875699" to="-152592813#0"/>
    <trip id="veh98" type="veh_passenger" depart="27.09" departLane="best" departSpeed="max" from="963077780" to="619843368#4"/>
    <trip id="veh99" type="veh_passenger" depart="27.37" departLane="best" from="805627429#1" to="64146451#1"/>
    <trip id="veh100" type="veh_passenger" depart="27.64" departLane="best" from="619843368#2" to="-31844801#0"/>
    <trip id="veh101" type="veh_passenger" depart="27.92" departLane="best" departSpeed="max" from="179829759#0" to="556851001#0"/>
    <trip id="veh102" type="veh_passenger" depart="28.20" departLane="best" departSpeed="max" from="1266207422#0" to="-153750263"/>
    <trip id="veh103" type="veh_passenger" depart="28.47" departLane="best" from="1257864252#0" to="82930727#2"/>
    <trip id="veh104" type="veh_passenger" depart="28.75" departLane="best" departSpeed="max" from="-619834171" to="600867959"/>
    <trip id="veh105" type="veh_passenger" depart="29.03" departLane="best" departSpeed="max" from="153750254" to="175973626#5"/>
    <trip id="veh106" type="veh_passenger" depart="29.30" departLane="best" from="72389924#1" to="-860238557#4"/>
    <trip id="veh107" type="veh_passenger" depart="29.58" departLane="best" from="-179875749#1" to="555900993"/>
    <trip id="veh108" type="veh_passenger" depart="29.86" departLane="best" departSpeed="max" from="-378014299" to="-638000014"/>
    <trip id="veh109" type="veh_passenger" depart="30.13" departLane="best" departSpeed="max" from="79881406" to="29418320#1"/>
    <trip id="veh110" type="veh_passenger" depart="30.41" departLane="best" departSpeed="max" from="179875629#0" to="559496937#1"/>
    <trip id="veh111" type="veh_passenger" depart="30.69" departLane="best" from="-179834048" to="29425444#2"/>
    <trip id="veh112" type="veh_passenger" depart="30.96" departLane="best" departSpeed="max" from="179840620#0" to="-620686975#0"/>
    <trip id="veh113" type="veh_passenger" depart="31.24" departLane="best" from="-37974878#3" to="771938545"/>
    <trip id="veh114" type="veh_passenger" depart="31.51" departLane="best" departSpeed="max" from="-179860760" to="-425614156#1"/>
    <trip id="veh115" type="veh_passenger" depart="31.79" departLane="best" from="265035145#0" to="387423177#5"/>
    <trip id="veh116" type="veh_passenger" depart="32.07" departLane="best" departSpeed="max" from="-593230835#1" to="-179875571"/>
    <trip id="veh117" type="veh_passenger" depart="32.34" departLane="best" from="620973115#2" to="-618974096#3"/>
    <trip id="veh118" type="veh_passenger" depart="32.62" departLane="best" from="265035144#2" to="37959263"/>
    <trip id="veh119" type="veh_passenger" depart="32.90" departLane="best" from="146990186#9-AddedOnRampEdge" to="29425444#2"/>
    <trip id="veh120" type="veh_passenger" depart="33.17" departLane="best" from="179860775" to="661156227#0"/>
    <trip id="veh121" type="veh_passenger" depart="33.45" departLane="best" departSpeed="max" from="-556833289" to="555297608#13"/>
    <trip id="veh122" type="veh_passenger" depart="33.73" departLane="best" departSpeed="max" from="-600846710" to="147613382"/>
    <trip id="veh123" type="veh_passenger" depart="34.00" departLane="best" from="380246872#0" to="-64146540"/>
    <trip id="veh124" type="veh_passenger" depart="34.28" departLane="best" departSpeed="max" from="-64146505#2" to="559521689#14"/>
    <trip id="veh125" type="veh_passenger" depart="34.56" departLane="best" from="179859653#4" to="-179845115#4"/>
    <trip id="veh126" type="veh_passenger" depart="34.83" departLane="best" departSpeed="max" from="913955458#0" to="860381919#1"/>
    <trip id="veh127" type="veh_passenger" depart="35.11" departLane="best" from="-179859675" to="-556847744#2"/>
    <trip id="veh128" type="veh_passenger" depart="35.38" departLane="best" departSpeed="max" from="-619834171" to="660840510#2"/>
    <trip id="veh130" type="veh_passenger" depart="35.94" departLane="best" departSpeed="max" from="1228886958" to="180598638#1"/>
    <trip id="veh131" type="veh_passenger" depart="36.21" departLane="best" from="61957172#8" to="552686174#1"/>
    <trip id="veh133" type="veh_passenger" depart="36.77" departLane="best" departSpeed="max" from="37958928" to="-179876676#0"/>
    <trip id="veh134" type="veh_passenger" depart="37.04" departLane="best" from="618965295#3" to="-64146505#1"/>
    <trip id="veh135" type="veh_passenger" depart="37.32" departLane="best" from="37974884#1" to="690755408"/>
    <trip id="veh136" type="veh_passenger" depart="37.60" departLane="best" departSpeed="max" from="-180591701" to="-179864077"/>
    <trip id="veh137" type="veh_passenger" depart="37.87" departLane="best" departSpeed="max" from="-179875670" to="265035151#2"/>
    <trip id="veh138" type="veh_passenger" depart="38.15" departLane="best" from="620686111#13" to="368474378#4"/>
    <trip id="veh139" type="veh_passenger" depart="38.43" departLane="best" departSpeed="max" from="41119360#0" to="-553633924#0"/>
    <trip id="veh140" type="veh_passenger" depart="38.70" departLane="best" from="301023208#2" to="620960662#1"/>
    <trip id="veh141" type="veh_passenger" depart="38.98" departLane="best" departSpeed="max" from="179834034" to="622373965#4"/>
    <trip id="veh142" type="veh_passenger" depart="39.26" departLane="best" from="619834169#0" to="-179840702#3"/>
    <trip id="veh143" type="veh_passenger" depart="39.53" departLane="best" from="147613382" to="-620975204#3"/>
    <trip id="veh145" type="veh_passenger" depart="40.08" departLane="best" from="31843521#12" to="-620693283#0"/>
    <trip id="veh146" type="veh_passenger" depart="40.36" departLane="best" from="-553630723#2" to="265035150"/>
    <trip id="veh147" type="veh_passenger" depart="40.64" departLane="best" departSpeed="max" from="152181805#0" to="1228907222#5"/>
    <trip id="veh148" type="veh_passenger" depart="40.91" departLane="best" departSpeed="max" from="-179859714" to="-620980711#3"/>
    <trip id="veh149" type="veh_passenger" depart="41.19" departLane="best" from="621247286#15" to="26486938#3"/>
    <trip id="veh150" type="veh_passenger" depart="41.47" departLane="best" from="619827510#0" to="29425218#3"/>
    <trip id="veh151" type="veh_passenger" depart="41.74" departLane="best" from="-293134574#0" to="179875662#1"/>
    <trip id="veh152" type="veh_passenger" depart="42.02" departLane="best" from="-623142723#6" to="622362429#16"/>
    <trip id="veh153" type="veh_passenger" depart="42.30" departLane="best" departSpeed="max" from="564848740" to="620961511#1"/>
    <trip id="veh154" type="veh_passenger" depart="42.57" departLane="best" departSpeed="max" from="621232269" to="-556841044#2"/>
    <trip id="veh155" type="veh_passenger" depart="42.85" departLane="best" from="-611228554#0" to="-179859728"/>
    <trip id="veh156" type="veh_passenger" depart="43.13" departLane="best" from="559521689#14-AddedOffRampEdge" to="620980962#1"/>
    <trip id="veh157" type="veh_passenger" depart="43.40" departLane="best" departSpeed="max" from="126771936#0" to="-37974864#3"/>
    <trip id="veh158" type="veh_passenger" depart="43.68" departLane="best" departSpeed="max" from="-378014299" to="660466579"/>
    <trip id="veh159" type="veh_passenger" depart="43.95" departLane="best" from="620684714#2" to="82306606#25"/>
    <trip id="veh160" type="veh_passenger" depart="44.23" departLane="best" departSpeed="max" from="613458429" to="620977831#2"/>
    <trip id="veh161" type="veh_passenger" depart="44.51" departLane="best" from="1264268716#4" to="557053863#21"/>
    <trip id="veh162" type="veh_passenger" depart="44.78" departLane="best" from="-73814951" to="660840500#2"/>
    <trip id="veh163" type="veh_passenger" depart="45.06" departLane="best" from="-600831769" to="620962889#1"/>
    <trip id="veh164" type="veh_passenger" depart="45.34" departLane="best" departSpeed="max" from="613458429" to="-620964798#0"/>
    <trip id="veh165" type="veh_passenger" depart="45.61" departLane="best" from="560199777#5" to="179860793"/>
    <trip id="veh166" type="veh_passenger" depart="45.89" departLane="best" from="561370254#12" to="619188398#3"/>
    <trip id="veh167" type="veh_passenger" depart="46.17" departLane="best" from="158193600#2" to="-682258892"/>
    <trip id="veh168" type="veh_passenger" depart="46.44" departLane="best" from="563367637" to="-561810318#0"/>
    <trip id="veh169" type="veh_passenger" depart="46.72" departLane="best" departSpeed="max" from="-1264229532" to="-512155985#0"/>
    <trip id="veh170" type="veh_passenger" depart="47.00" departLane="best" from="-701715200#0" to="620962889#3"/>
    <trip id="veh171" type="veh_passenger" depart="47.27" departLane="best" from="778634929#3" to="-620980710#0"/>
    <trip id="veh172" type="veh_passenger" depart="47.55" departLane="best" from="31845397#1" to="152178385#1-AddedOffRampEdge"/>
    <trip id="veh174" type="veh_passenger" depart="48.10" departLane="best" from="660466583#2" to="-179864077"/>
    <trip id="veh176" type="veh_passenger" depart="48.65" departLane="best" from="74099613" to="-620961513#5"/>
    <trip id="veh177" type="veh_passenger" depart="48.93" departLane="best" from="-179875683#1" to="179823482#6"/>
    <trip id="veh178" type="veh_passenger" depart="49.21" departLane="best" from="500733676#1" to="-79881406"/>
    <trip id="veh179" type="veh_passenger" depart="49.48" departLane="best" from="386989162#3" to="180300660#2"/>
    <trip id="veh180" type="veh_passenger" depart="49.76" departLane="best" from="1262591447#0" to="28878387#0"/>
    <trip id="veh181" type="veh_passenger" depart="50.04" departLane="best" departSpeed="max" from="-618958594#6" to="553630734#10"/>
    <trip id="veh182" type="veh_passenger" depart="50.31" departLane="best" from="-1102910559#0" to="64146316"/>
    <trip id="veh183" type="veh_passenger" depart="50.59" departLane="best" departSpeed="max" from="179875563" to="556675647"/>
    <trip id="veh184" type="veh_passenger" depart="50.87" departLane="best" from="560199777#1" to="386989162#2"/>
    <trip id="veh185" type="veh_passenger" depart="51.14" departLane="best" from="1223614580" to="-179823490#1"/>
    <trip id="veh186" type="veh_passenger" depart="51.42" departLane="best" from="-37975080#4" to="1053790587#5"/>
    <trip id="veh187" type="veh_passenger" depart="51.70" departLane="best" departSpeed="max" from="-64146316" to="-619857288#1"/>
    <trip id="veh188" type="veh_passenger" depart="51.97" departLane="best" from="42935686#3" to="-64146551"/>
    <trip id="veh189" type="veh_passenger" depart="52.25" departLane="best" departSpeed="max" from="-623167626" to="152587018"/>
    <trip id="veh190" type="veh_passenger" depart="52.52" departLane="best" departSpeed="max" from="126771578" to="-623167660#2"/>
    <trip id="veh191" type="veh_passenger" depart="52.80" departLane="best" departSpeed="max" from="-180569281" to="175973623#4"/>
    <trip id="veh192" type="veh_passenger" depart="53.08" departLane="best" from="660840500#5" to="388733591"/>
    <trip id="veh193" type="veh_passenger" depart="53.35" departLane="best" from="621247286#0" to="37959103#21"/>
    <trip id="veh194" type="veh_passenger" depart="53.63" departLane="best" from="-622362441#5" to="26488222"/>
    <trip id="veh195" type="veh_passenger" depart="53.91" departLane="best" from="1088476469" to="-622373962#2"/>
    <trip id="veh196" type="veh_passenger" depart="54.18" departLane="best" from="152183329#13" to="-265048828#0"/>
    <trip id="veh197" type="veh_passenger" depart="54.46" departLane="best" from="37959059#6" to="-179859735#3"/>
    <trip id="veh198" type="veh_passenger" depart="54.74" departLane="best" departSpeed="max" from="152590607" to="556851001#0"/>
    <trip id="veh199" type="veh_passenger" depart="55.01" departLane="best" departSpeed="max" from="176427325" to="622362429#24"/>
    <trip id="veh200" type="veh_passenger" depart="55.29" departLane="best" departSpeed="max" from="564848740" to="-375101441#1"/>
    <trip id="veh201" type="veh_passenger" depart="55.57" departLane="best" from="179861358#0" to="619834161"/>
    <trip id="veh202" type="veh_passenger" depart="55.84" departLane="best" from="301023173#3-AddedOffRampEdge" to="1124504383#0-AddedOnRampEdge"/>
    <trip id="veh203" type="veh_passenger" depart="56.12" departLane="best" from="618968687#3" to="559521689#1-AddedOnRampEdge"/>
    <trip id="veh204" type="veh_passenger" depart="56.39" departLane="best" departSpeed="max" from="380279001#0" to="-561370254#7"/>
    <trip id="veh205" type="veh_passenger" depart="56.67" departLane="best" departSpeed="max" from="-553633925#1" to="-1266207422#0"/>
    <trip id="veh206" type="veh_passenger" depart="56.95" departLane="best" from="-631925573#5" to="179862632#1"/>
    <trip id="veh207" type="veh_passenger" depart="57.22" departLane="best" from="619847392#0" to="-179829759#0"/>
    <trip id="veh208" type="veh_passenger" depart="57.50" departLane="best" from="146990186#10" to="380236768#0"/>
    <trip id="veh209" type="veh_passenger" depart="57.78" departLane="best" from="-553620427" to="537275928#1"/>
    <trip id="veh210" type="veh_passenger" depart="58.05" departLane="best" from="179835842#6" to="-618969890#2"/>
    <trip id="veh211" type="veh_passenger" depart="58.33" departLane="best" from="37959103#16" to="-1228873750#0"/>
    <trip id="veh212" type="veh_passenger" depart="58.61" departLane="best" from="556671779" to="568380204#1"/>
    <trip id="veh213" type="veh_passenger" depart="58.88" departLane="best" departSpeed="max" from="-179875668#1" to="176100180#0"/>
    <trip id="veh214" type="veh_passenger" depart="59.16" departLane="best" from="425614156#2" to="74099619#2"/>
    <trip id="veh215" type="veh_passenger" depart="59.44" departLane="best" from="179859723#1" to="-152592809#0"/>
    <trip id="veh216" type="veh_passenger" depart="59.71" departLane="best" departSpeed="max" from="-608441162" to="-619857299#2"/>
    <trip id="veh217" type="veh_passenger" depart="59.99" departLane="best" departSpeed="max" from="153750265#0" to="618958593#6"/>
    <trip id="veh219" type="veh_passenger" depart="60.54" departLane="best" from="265035146#0" to="702927500#1"/>
    <trip id="veh220" type="veh_passenger" depart="60.82" departLane="best" from="620975209#2" to="37958918"/>
    <trip id="veh221" type="veh_passenger" depart="61.09" departLane="best" from="425614156#3" to="-179875758#1"/>
    <trip id="veh222" type="veh_passenger" depart="61.37" departLane="best" departSpeed="max" from="619201356" to="26488222"/>
    <trip id="veh223" type="veh_passenger" depart="61.65" departLane="best" from="621217256#1" to="559463923#15"/>
    <trip id="veh224" type="veh_passenger" depart="61.92" departLane="best" from="176584225#4" to="-620686111#6"/>
    <trip id="veh225" type="veh_passenger" depart="62.20" departLane="best" departSpeed="max" from="-605380947" to="380687734"/>
    <trip id="veh226" type="veh_passenger" depart="62.48" departLane="best" from="557053863#23" to="180571424"/>
    <trip id="veh227" type="veh_passenger" depart="62.75" departLane="best" from="29425218#1-AddedOffRampEdge" to="-620970922#0"/>
    <trip id="veh228" type="veh_passenger" depart="63.03" departLane="best" from="-179859734#1" to="-622362425#0"/>
    <trip id="veh230" type="veh_passenger" depart="63.58" departLane="best" departSpeed="max" from="179875598" to="-179876677#1"/>
    <trip id="veh232" type="veh_passenger" depart="64.14" departLane="best" from="386989162#2" to="-176099315"/>
    <trip id="veh234" type="veh_passenger" depart="64.69" departLane="best" from="146990186#15" to="556833274#5"/>
    <trip id="veh235" type="veh_passenger" depart="64.96" departLane="best" from="146990454#3" to="622373965#1"/>
    <trip id="veh236" type="veh_passenger" depart="65.24" departLane="best" from="223218408#1" to="527916539"/>
    <trip id="veh237" type="veh_passenger" depart="65.52" departLane="best" from="619857261#3" to="561808455#7"/>
    <trip id="veh238" type="veh_passenger" depart="65.79" departLane="best" from="1258294311#0" to="-1228873751"/>
    <trip id="veh239" type="veh_passenger" depart="66.07" departLane="best" departSpeed="max" from="1017259831" to="559521689#21"/>
    <trip id="veh240" type="veh_passenger" depart="66.35" departLane="best" from="619857251#7" to="72389924#0"/>
    <trip id="veh241" type="veh_passenger" depart="66.62" departLane="best" from="146990186#9-AddedOnRampEdge" to="-559496932#1"/>
    <trip id="veh242" type="veh_passenger" depart="66.90" departLane="best" from="-179875648#1" to="365601517"/>
    <trip id="veh243" type="veh_passenger" depart="67.18" departLane="best" from="561369924" to="-559496939#0"/>