<?xml version="1.0" encoding="UTF-8"?>

<!-- generated on 2024-05-08 18:00:04.718694 by osmWebWizard.py v1_19_0+0000-baa66a0f364
<configuration>
    <net-file value="C:\Users\javie\Sumo\2024-05-08-17-59-43\osm.net.xml.gz"/>
    <ptlines-file value="C:\Users\javie\Sumo\2024-05-08-17-59-43\osm_ptlines.xml"/>
    <ptstops-file value="C:\Users\javie\Sumo\2024-05-08-17-59-43\osm_stops.add.xml"/>
    <output-file value="C:\Users\javie\Sumo\2024-05-08-17-59-43\osm_pt.rou.xml"/>
    <stopinfos-file value="C:\Users\javie\Sumo\2024-05-08-17-59-43\stopinfos.xml"/>
    <routes-file value="C:\Users\javie\Sumo\2024-05-08-17-59-43\vehroutes.xml"/>
    <trips-file value="C:\Users\javie\Sumo\2024-05-08-17-59-43\trips.trips.xml"/>
    <min-stops value="0"/>
    <extend-to-fringe value="True"/>
    <random-begin value="True"/>
    <seed value="42"/>
    <ignore-errors value="True"/>
    <vtype-prefix value="pt_"/>
    <verbose value="True"/>
</configuration>
-->

<routes xmlns:xsi="http://www.w3.org/2001/XMLSchema-instance" xsi:noNamespaceSchemaLocation="http://sumo.dlr.de/xsd/routes_file.xsd">
    <vType id="pt_bus" vClass="bus"/>
    <vType id="pt_tram" vClass="tram"/>
    <vType id="pt_train" vClass="rail"/>
    <vType id="pt_subway" vClass="rail_urban"/>
    <vType id="pt_light_rail" vClass="rail_urban"/>
    <vType id="pt_monorail" vClass="rail_urban"/>
    <vType id="pt_trolleybus" vClass="bus"/>
    <vType id="pt_minibus" vClass="bus"/>
    <vType id="pt_share_taxi" vClass="taxi"/>
    <vType id="pt_aerialway" vClass="rail_urban" length="2.5" width="2" personCapacity="4"/>
    <vType id="pt_ferry" vClass="ship"/>
    <route id="pt_bus_Albrook_-_Amador:0" edges="61957184#1 556119784 1013537810 180592976#0 180592976#1 1230162297 -368527152#2 -368527152#1 -368527152#0 180592999 265043147#0 265043147#1 265043147#2 265043147#3 265043147#4 265043147#5 265043147#6-AddedOnRampEdge 265043147#6" >
        <stop busStop="10852935519" duration="20" until="31.0"/> <!-- None -->
    </route>
    <route id="pt_bus_Panamá_Viejo_-_Ave._Balboa_-_Mercado_de_Mariscos:0" edges="860209444#8 265170931#1 265170931#2 265170931#3 265170931#4 265170931#5 265170931#6 265170931#7 265170931#9 265170931#10 265170931#11 265170931#12 265170931#13 265170931#14" >
        <stop busStop="2708397134" duration="20" until="42.0"/> <!-- Hospital del Niño -->
    </route>
    <route id="pt_bus_Alcalde_Díaz_-_Via_España_-_Estación_Marañón:0" edges="158187043#0 158187043#1 158187043#2 158187043#3 557053863#0 557053863#1 557053863#2 557053863#3 557053863#4 557053863#6 557053863#7 557053863#8 557053863#9 557053863#10 557053863#11 557053863#12 557053863#13 557053863#14 557053863#15 557053863#16 557053863#17 557053863#18 557053863#19 557053863#20 557053863#21 557053863#22 557053863#23 383631567 383662605#0 383662605#1 383662605#2 383662605#3 383662605#4 619827524#0 619827524#1 619827524#2 619827524#3 619827524#4 619827524#5 619827524#6 619827524#9 619827524#10 619827524#11 701653895#0 701653895#1 31845222 618626190 618626191 619834155#0 619834155#1 619834155#2 619834155#3 619834155#4 619834155#5 619834155#6 619827512#0 619827512#1 619827512#2 619827512#3 265166490#0 265166490#1 265166490#2 265166490#3 265166491 380231547#0 380231547#1 380231547#2 265166489" >
        <stop busStop="2701746132" duration="20" until="45.0"/> <!-- Obarrio -->
    </route>
    <route id="pt_bus_Amador_-_Albrook:0" edges="264770267#0 264770267#0-AddedOffRampEdge 264770267#1 264770267#2 268116604#0 268116604#1 268116606 1013537807 552693830 268116611#0 268116611#1 268116611#2 268116611#3 268116611#4 82124277 368527152#0 368527152#1 368527152#2 368524642#0 368524642#1 618627357 1262569398 618993822#2 618993822#3 618993822#4 618993822#5 618993822#6 618993822#7 618993822#8 370324139 1013537804 370324141#1 -556119784 61957184#0 61957184#1" >
        <stop busStop="10852935519@9735230" duration="20" until="282.0"/> <!-- None -->
    </route>
    <route id="pt_bus_Tocumen_-_Via_España_-_Albrook:0" edges="158187043#0 158187043#0 42935501#1" >
        <stop busStop="2701746132" duration="20" until="47.0"/> <!-- Obarrio -->
    </route>
    <route id="pt_bus_Albrook_-_Vía_España_-_Gran_Estación:0" edges="1167131246 265450396 556870433#0 556870433#1 268116603 82586682 346392878 146990454#0 146990454#1 146990454#2 146990454#3 146990454#4 146990454#5 146990454#6 29426452#0 29426452#1 29426452#2 29426452#4 265048835#0 265048835#1 265048835#2 265048835#3 265048835#4 860378951 860378951-AddedOffRampEdge 265048834 387405981#0-AddedOnRampEdge 387405981#0 387405981#1 387405981#2 387405981#2-AddedOffRampEdge 387405981#3 619843368#1 619843368#2 619843368#3 619843368#4 619843368#5 383817337 29426473#0 29426473#1-AddedOnRampEdge 29426473#1 29426473#2 29426473#3 29426473#4 29426473#5 29426473#6 385887684 385887680#5 385888322#0 385888322#1 385888322#2 607794386#0 607794386#1 607794386#2 607794386#3 640399962 380222153 -557066190#0 -265035162#0 -265035161" >
        <stop busStop="2734730394" duration="20" until="459.0"/> <!-- Abastos -->
    </route>
    <route id="pt_bus_Esclusas_de_Miraflores_-_Albrook:0" edges="263956804 263956804-AddedOffRampEdge 40809788 1263750638#0 1263750638#1 42935500#0 42935500#1 1263750637 42935501#0 42935501#1" >
        <stop busStop="2696382427" duration="20" until="290.0"/> <!-- D - Via España -->
    </route>
    <route id="pt_bus_Albrook_-_Via_España_-_Los_Andes:0" edges="1167131246 265450396 556870433#0 556870433#1 268116603 82586682 346392878 146990454#0 146990454#1 146990454#2 146990454#3 146990454#4 146990454#5 146990454#6 29426452#0 29426452#1 29426452#2 29426452#4 265048835#0 265048835#1 265048835#2 265048835#3 265048835#4 860378951 860378951-AddedOffRampEdge 265048834 387405981#0-AddedOnRampEdge 387405981#0 387405981#1 387405981#2 387405981#2-AddedOffRampEdge 387405981#3 619843368#1 619843368#2 619843368#3 619843368#4 619843368#5 383817337 29426473#0 29426473#1-AddedOnRampEdge 29426473#1 29426473#2 29426473#3 29426473#4 29426473#5 29426473#6 385887684 385887680#5 385888322#0 385888322#1 385888322#2 607794386#0 607794386#1 607794386#2 607794386#3 640399962 380222153 -557066190#0 -265035162#0 -265035161" >
        <stop busStop="2734730394" duration="20" until="618.0"/> <!-- Abastos -->
    </route>
    <route id="pt_subway_L2:0" color="green" edges="684868237" >
        <stop busStop="6417104467" duration="20" until="99.0"/> <!-- Don Bosco -->
        <stop busStop="6416942637" duration="20" until="184.0"/> <!-- Pedregal - Las Acacias -->
        <stop busStop="6416942690" duration="20" until="302.0"/> <!-- San Antonio -->
        <stop busStop="6416933278" duration="20" until="376.0"/> <!-- Cerro Viento -->
        <stop busStop="6416942721" duration="20" until="454.0"/> <!-- Brisas Del Golf -->
        <stop busStop="6416942751" duration="20" until="557.0"/> <!-- El Crisol -->
        <stop busStop="6416942791" duration="20" until="652.0"/> <!-- Villa Lucre -->
        <stop busStop="6416933276" duration="20" until="749.0"/> <!-- Cincuentenario -->
        <stop busStop="6416933275" duration="20" until="828.0"/> <!-- Paraiso -->
        <stop busStop="6416933273" duration="20" until="901.0"/> <!-- San Miguelito -->
    </route>
    <route id="pt_subway_L2:1" color="green" edges="684868250" >
        <stop busStop="6416933272" duration="20" until="59.0"/> <!-- San Miguelito -->
        <stop busStop="6416933274" duration="20" until="133.0"/> <!-- Paraiso -->
        <stop busStop="6416933277" duration="20" until="212.0"/> <!-- Cincuentenario -->
        <stop busStop="6416942785" duration="20" until="309.0"/> <!-- Villa Lucre -->
        <stop busStop="6416942764" duration="20" until="405.0"/> <!-- El Crisol -->
        <stop busStop="6416942736" duration="20" until="507.0"/> <!-- Brisas Del Golf -->
        <stop busStop="6416933279" duration="20" until="585.0"/> <!-- Cerro Viento -->
        <stop busStop="6416942683" duration="20" until="659.0"/> <!-- San Antonio -->
        <stop busStop="6416942636" duration="20" until="777.0"/> <!-- Pedregal - Las Acacias -->
        <stop busStop="6417104466" duration="20" until="862.0"/> <!-- Don Bosco -->
    </route>
    <route id="pt_subway_L1:0" color="red" edges="272808900 -1257873220#0" >
        <stop busStop="3529301118" duration="20" until="46.0"/> <!-- San Isidro -->
        <stop busStop="-5173156385" duration="20" until="164.0"/> <!-- Los Andes -->
        <stop busStop="-2618155817" duration="20" until="246.0"/> <!-- Pan de Azúcar -->
        <stop busStop="-2618155816" duration="20" until="342.0"/> <!-- San Miguelito -->
        <stop busStop="2618155178" duration="20" until="427.0"/> <!-- Pueblo Nuevo -->
        <stop busStop="2618155177" duration="20" until="509.0"/> <!-- 12 de Octubre -->
        <stop busStop="3529301119" duration="20" until="594.0"/> <!-- El Ingenio -->
        <stop busStop="3529301122" duration="20" until="686.0"/> <!-- Fernández de Córdoba -->
        <stop busStop="2618155175" duration="20" until="771.0"/> <!-- Vía Argentina -->
        <stop busStop="2618155174" duration="20" until="850.0"/> <!-- Iglesia del Carmen -->
        <stop busStop="2618151444" duration="20" until="945.0"/> <!-- Santo Tomás -->
        <stop busStop="2618136969" duration="20" until="1013.0"/> <!-- Lotería -->
        <stop busStop="5208805274" duration="20" until="1090.0"/> <!-- Cinco de Mayo -->
        <stop busStop="2618111169" duration="20" until="1202.0"/> <!-- Albrook -->
    </route>
    <route id="pt_subway_L1:1" color="red" edges="-346387794#0 1257873220#1" >
        <stop busStop="-2618111169" duration="20" until="58.0"/> <!-- Albrook -->
        <stop busStop="-5208805274" duration="20" until="170.0"/> <!-- Cinco de Mayo -->
        <stop busStop="-2618136969" duration="20" until="247.0"/> <!-- Lotería -->
        <stop busStop="-2618151444" duration="20" until="315.0"/> <!-- Santo Tomás -->
        <stop busStop="-2618155174" duration="20" until="410.0"/> <!-- Iglesia del Carmen -->
        <stop busStop="-2618155175" duration="20" until="489.0"/> <!-- Vía Argentina -->
        <stop busStop="-3529301122" duration="20" until="574.0"/> <!-- Fernández de Córdoba -->
        <stop busStop="-3529301119" duration="20" until="666.0"/> <!-- El Ingenio -->
        <stop busStop="-2618155177" duration="20" until="751.0"/> <!-- 12 de Octubre -->
        <stop busStop="-2618155178" duration="20" until="833.0"/> <!-- Pueblo Nuevo -->
        <stop busStop="2618155816" duration="20" until="918.0"/> <!-- San Miguelito -->
        <stop busStop="2618155817" duration="20" until="1014.0"/> <!-- Pan de Azúcar -->
        <stop busStop="5173156385" duration="20" until="1096.0"/> <!-- Los Andes -->
        <stop busStop="-3529301118" duration="20" until="1214.0"/> <!-- San Isidro -->
    </route>
    <flow id="pt_bus_Albrook_-_Amador:0" type="pt_bus" route="pt_bus_Albrook_-_Amador:0" begin="15.0" end="3615.0" period="600" line="Albrook_-_Amador:0" >
        <param key="name" value="Albrook - Amador"/>
        <param key="completeness" value="0.14"/>
    </flow>
    <flow id="pt_bus_Panamá_Viejo_-_Ave._Balboa_-_Mercado_de_Mariscos:0" type="pt_bus" route="pt_bus_Panamá_Viejo_-_Ave._Balboa_-_Mercado_de_Mariscos:0" begin="133.0" end="3733.0" period="600" line="Panamá_Viejo_-_Ave._Balboa_-_Mercado_de_Mariscos:0" >
        <param key="name" value="Panamá Viejo - Ave. Balboa - Mercado de Mariscos"/>
        <param key="completeness" value="0.50"/>
    </flow>
    <flow id="pt_bus_Alcalde_Díaz_-_Via_España_-_Estación_Marañón:0" type="pt_bus" route="pt_bus_Alcalde_Díaz_-_Via_España_-_Estación_Marañón:0" begin="131.0" end="3731.0" period="600" line="Alcalde_Díaz_-_Via_España_-_Estación_Marañón:0" >
        <param key="name" value="Alcalde Díaz - Via España - Estación Marañón"/>
        <param key="completeness" value="0.25"/>
    </flow>
    <flow id="pt_bus_Amador_-_Albrook:0" type="pt_bus" route="pt_bus_Amador_-_Albrook:0" begin="441.0" end="4041.0" period="600" line="Amador_-_Albrook:0" >
        <param key="name" value="Amador - Albrook"/>
        <param key="completeness" value="0.33"/>
    </flow>
    <flow id="pt_bus_Tocumen_-_Via_España_-_Albrook:0" type="pt_bus" route="pt_bus_Tocumen_-_Via_España_-_Albrook:0" begin="52.0" end="3652.0" period="600" line="Tocumen_-_Via_España_-_Albrook:0" >
        <param key="name" value="Tocumen - Via España - Albrook"/>
        <param key="completeness" value="0.14"/>
    </flow>
    <flow id="pt_bus_Albrook_-_Vía_España_-_Gran_Estación:0" type="pt_bus" route="pt_bus_Albrook_-_Vía_España_-_Gran_Estación:0" begin="17.0" end="3617.0" period="600" line="Albrook_-_Vía_España_-_Gran_Estación:0" >
        <param key="name" value="Albrook - Vía España - Gran Estación"/>
        <param key="completeness" value="0.20"/>
    </flow>
    <flow id="pt_bus_Esclusas_de_Miraflores_-_Albrook:0" type="pt_bus" route="pt_bus_Esclusas_de_Miraflores_-_Albrook:0" begin="535.0" end="4135.0" period="600" line="Esclusas_de_Miraflores_-_Albrook:0" >
        <param key="name" value="Esclusas de Miraflores - Albrook"/>
        <param key="completeness" value="0.12"/>
    </flow>
    <flow id="pt_bus_Albrook_-_Via_España_-_Los_Andes:0" type="pt_bus" route="pt_bus_Albrook_-_Via_España_-_Los_Andes:0" begin="165.0" end="3765.0" period="600" line="Albrook_-_Via_España_-_Los_Andes:0" >
        <param key="name" value="Albrook - Via España - Los Andes"/>
        <param key="completeness" value="0.20"/>
    </flow>
    <flow id="pt_subway_L2:0" type="pt_subway" route="pt_subway_L2:0" begin="383.0" end="3983.0" period="600" line="L2:0" >
        <param key="name" value="Línea 2 : Nuevo Tocumen → San Miguelito"/>
        <param key="completeness" value="0.62"/>
    </flow>
    <flow id="pt_subway_L2:1" type="pt_subway" route="pt_subway_L2:1" begin="406.0" end="4006.0" period="600" line="L2:1" >
        <param key="name" value="Línea 2 : San Miguelito → Nuevo Tocumen"/>
        <param key="completeness" value="0.62"/>
    </flow>
    <flow id="pt_subway_L1:0" type="pt_subway" route="pt_subway_L1:0" begin="253.0" end="3853.0" period="600" line="L1:0" >
        <param key="name" value="Línea 1"/>
        <param key="completeness" value="1.00"/>
    </flow>
    <flow id="pt_subway_L1:1" type="pt_subway" route="pt_subway_L1:1" begin="1474.0" end="5074.0" period="600" line="L1:1" >
        <param key="name" value="Línea 1"/>
        <param key="completeness" value="1.00"/>
    </flow>
</routes>
