<?xml version="1.0" encoding="UTF-8"?>

<!-- generated on 2024-05-20 19:46:11 by Eclipse SUMO duarouter Version 1.19.0
<configuration xmlns:xsi="http://www.w3.org/2001/XMLSchema-instance" xsi:noNamespaceSchemaLocation="http://sumo.dlr.de/xsd/duarouterConfiguration.xsd">

    <input>
        <net-file value="mapaCompleto/mapaCompleto.net.xml"/>
        <route-files value="mapaCompleto/result.trips.rou.xml"/>
    </input>

    <output>
        <output-file value="mapaCompleto/resultRouter.rou.xml"/>
        <write-trips value="true"/>
    </output>

    <processing>
        <repair value="true"/>
    </processing>

    <report>
        <ignore-errors value="true"/>
    </report>

</configuration>
-->

<routes xmlns:xsi="http://www.w3.org/2001/XMLSchema-instance" xsi:noNamespaceSchemaLocation="http://sumo.dlr.de/xsd/routes_file.xsd">
    <vType id="random" vClass="passenger" color="blue"/>
    <trip id="randUni8137:1" type="random" depart="2.00" departPos="55.26" arrivalPos="11.73" arrivalSpeed="0.00" from="179859674" to="-620712332#11"/>
    <trip id="randUni15747:1" type="random" depart="5.00" departPos="17.21" arrivalPos="246.96" arrivalSpeed="0.00" from="-620975536" to="179860787"/>
    <trip id="randUni13069:1" type="random" depart="16.00" departPos="53.21" arrivalPos="29.82" arrivalSpeed="0.00" from="1264653379#1" to="559521694#0-AddedOffRampEdge"/>
    <trip id="randUni3867:1" type="random" depart="34.00" departPos="54.49" arrivalPos="20.51" arrivalSpeed="0.00" from="-179860788#1" to="556850999"/>
    <trip id="randUni792:1" type="random" depart="36.00" departPos="14.97" arrivalPos="43.90" arrivalSpeed="0.00" from="552684642" to="179840705#0"/>
    <trip id="randUni2557:1" type="random" depart="39.00" departPos="40.28" arrivalPos="15.09" arrivalSpeed="0.00" from="556836429" to="-179859709#1"/>
    <trip id="randUni9838:1" type="random" depart="63.00" departPos="42.06" arrivalPos="54.12" arrivalSpeed="0.00" from="72518647" to="-552686563#1"/>
    <trip id="randUni2311:1" type="random" depart="83.00" departPos="60.11" arrivalPos="3.45" arrivalSpeed="0.00" from="619857261#7" to="152181798#0"/>
    <trip id="randUni16764:1" type="random" depart="88.00" departPos="25.16" arrivalPos="79.38" arrivalSpeed="0.00" from="556836435" to="180591703#2"/>
    <trip id="randUni12621:1" type="random" depart="113.00" departPos="126.77" arrivalPos="5.42" arrivalSpeed="0.00" from="-556833280#1" to="180569281"/>
    <trip id="randUni2855:1" type="random" depart="116.00" departPos="11.11" arrivalPos="11.94" arrivalSpeed="0.00" from="-180569279#1" to="1124254048"/>
    <trip id="randUni6668:1" type="random" depart="123.00" departPos="18.54" arrivalPos="11.44" arrivalSpeed="0.00" from="553633924#3" to="-126771584#1"/>
    <trip id="randUni12227:1" type="random" depart="139.00" departPos="144.81" arrivalPos="41.33" arrivalSpeed="0.00" from="374839161" to="-179859723#1"/>
    <trip id="randUni11147:1" type="random" depart="175.00" departPos="47.26" arrivalPos="48.63" arrivalSpeed="0.00" from="386064608#0" to="385882898#2"/>
    <trip id="randUni6409:1" type="random" depart="180.00" departPos="38.68" arrivalPos="66.88" arrivalSpeed="0.00" from="113757293#2" to="552686569"/>
    <trip id="randUni7320:1" type="random" depart="183.00" departPos="85.94" arrivalPos="7.88" arrivalSpeed="0.00" from="560199777#0" to="1228886936#0"/>
    <trip id="randUni16095:1" type="random" depart="201.00" departPos="22.09" arrivalPos="6.24" arrivalSpeed="0.00" from="-601728823" to="-1232279684#0"/>
    <trip id="randUni1087:1" type="random" depart="205.00" departPos="7.27" arrivalPos="30.39" arrivalSpeed="0.00" from="-180427246#0" to="556847731"/>
    <trip id="randUni11085:1" type="random" depart="217.00" departPos="1.23" arrivalPos="56.64" arrivalSpeed="0.00" from="620964806#2" to="-701409316#0"/>
    <trip id="randUni1340:1" type="random" depart="224.00" departPos="8.85" arrivalPos="20.46" arrivalSpeed="0.00" from="-552686568" to="556833276"/>
    <trip id="randUni11017:1" type="random" depart="232.00" departPos="26.96" arrivalPos="358.47" arrivalSpeed="0.00" from="380687737#0" to="388742660#0"/>
    <trip id="randUni8730:1" type="random" depart="244.00" departPos="79.07" arrivalPos="30.12" arrivalSpeed="0.00" from="-179864055#1" to="559463922#0"/>
    <trip id="randUni11200:1" type="random" depart="246.00" departPos="13.00" arrivalPos="39.97" arrivalSpeed="0.00" from="152181805#0" to="620973110#5"/>
    <trip id="randUni10699:1" type="random" depart="248.00" departPos="16.05" arrivalPos="4.98" arrivalSpeed="0.00" from="380279001#0" to="552684639#3"/>
    <trip id="randUni5873:1" type="random" depart="249.00" departPos="30.03" arrivalPos="4.40" arrivalSpeed="0.00" from="147613391" to="559521689#32"/>
    <trip id="randUni4509:1" type="random" depart="252.00" departPos="20.86" arrivalPos="23.18" arrivalSpeed="0.00" from="621204153#0" to="179859698#1"/>
    <trip id="randUni64:1" type="random" depart="255.00" departPos="2.12" arrivalPos="21.73" arrivalSpeed="0.00" from="-180427227#0" to="176427327"/>
    <trip id="randUni3367:1" type="random" depart="255.00" departPos="57.54" arrivalPos="23.28" arrivalSpeed="0.00" from="293134214#2" to="-552686567#1"/>
    <trip id="randUni8850:1" type="random" depart="291.00" departPos="56.98" arrivalPos="7.94" arrivalSpeed="0.00" from="72197502" to="152587018"/>
    <trip id="randUni15436:1" type="random" depart="302.00" departPos="53.02" arrivalPos="35.38" arrivalSpeed="0.00" from="-552686565#1" to="346397581#1-AddedOnRampEdge"/>
    <trip id="randUni1195:1" type="random" depart="305.00" departPos="74.44" arrivalPos="7.03" arrivalSpeed="0.00" from="-179859723#0" to="-552686567#0"/>
    <trip id="randUni10985:1" type="random" depart="309.00" departPos="3.50" arrivalPos="37.98" arrivalSpeed="0.00" from="-126771596#0" to="556841044#2"/>
    <trip id="randUni3894:1" type="random" depart="332.00" departPos="20.30" arrivalPos="1.91" arrivalSpeed="0.00" from="-556847749#2" to="-85227232#2"/>
    <trip id="randUni16471:1" type="random" depart="350.00" departPos="88.48" arrivalPos="13.09" arrivalSpeed="0.00" from="-180427246#2" to="556847744#1"/>
    <trip id="randUni12302:1" type="random" depart="354.00" departPos="22.18" arrivalPos="60.10" arrivalSpeed="0.00" from="788601014#1" to="-152586103"/>
    <trip id="randUni8289:1" type="random" depart="358.00" departPos="37.42" arrivalPos="39.30" arrivalSpeed="0.00" from="180591737#0" to="-380687737#0"/>
    <trip id="randUni8807:1" type="random" depart="361.00" departPos="1634.52" arrivalPos="50.88" arrivalSpeed="0.00" from="82220763#2" to="-611228554#6"/>
    <trip id="randUni10720:1" type="random" depart="367.00" departPos="53.00" arrivalPos="67.12" arrivalSpeed="0.00" from="-619847427#2" to="-179875651#2"/>
    <trip id="randUni4089:1" type="random" depart="372.00" departPos="2.97" arrivalPos="9.37" arrivalSpeed="0.00" from="-620712332#0" to="179862630#2"/>
    <trip id="randUni471:1" type="random" depart="378.00" departPos="72.06" arrivalPos="307.09" arrivalSpeed="0.00" from="-556836450#1" to="-550801364"/>
    <trip id="randUni10527:1" type="random" depart="401.00" departPos="128.11" arrivalPos="118.08" arrivalSpeed="0.00" from="559521687#1" to="-66985182"/>
    <trip id="randUni2793:1" type="random" depart="419.00" departPos="71.19" arrivalPos="23.12" arrivalSpeed="0.00" from="152183866" to="-556851001#2"/>
    <trip id="randUni9501:1" type="random" depart="442.00" departPos="55.21" arrivalPos="20.72" arrivalSpeed="0.00" from="-179860768" to="621218119#3"/>
    <trip id="randUni1598:1" type="random" depart="446.00" departPos="33.08" arrivalPos="13.70" arrivalSpeed="0.00" from="-72197498" to="385920478#1-AddedOnRampEdge"/>
    <trip id="randUni14375:1" type="random" depart="450.00" departPos="105.34" arrivalPos="128.54" arrivalSpeed="0.00" from="-553630723#0" to="72518650"/>
    <trip id="randUni8233:1" type="random" depart="465.00" departPos="35.71" arrivalPos="75.43" arrivalSpeed="0.00" from="425614156#1" to="254086170#2"/>
    <trip id="randUni13119:1" type="random" depart="476.00" departPos="30.47" arrivalPos="42.21" arrivalSpeed="0.00" from="620712329#1" to="-611228554#7"/>
    <trip id="randUni7473:1" type="random" depart="478.00" departPos="45.62" arrivalPos="148.11" arrivalSpeed="0.00" from="-179840705#0" to="126771578"/>
    <trip id="randUni7490:1" type="random" depart="479.00" departPos="22.25" arrivalPos="45.15" arrivalSpeed="0.00" from="-620965906" to="-620961508#0"/>
    <trip id="randUni6070:1" type="random" depart="492.00" departPos="242.30" arrivalPos="12.49" arrivalSpeed="0.00" from="620975417#2" to="552686565#1"/>
    <trip id="randUni8836:1" type="random" depart="494.00" departPos="25.11" arrivalPos="6.50" arrivalSpeed="0.00" from="-179862630#4" to="29419208#1-AddedOffRampEdge"/>
    <trip id="randUni13354:1" type="random" depart="497.00" departPos="16.69" arrivalPos="85.58" arrivalSpeed="0.00" from="82930682" to="555005916"/>
    <trip id="randUni2033:1" type="random" depart="519.00" departPos="15.55" arrivalPos="9.60" arrivalSpeed="0.00" from="42935686#8" to="1258364570#1"/>
    <trip id="randUni8942:1" type="random" depart="529.00" departPos="10.29" arrivalPos="607.56" arrivalSpeed="0.00" from="553633912#2" to="-375101441#1"/>
    <trip id="randUni3209:1" type="random" depart="531.00" departPos="178.40" arrivalPos="5.59" arrivalSpeed="0.00" from="179860790#0" to="603487428#1"/>
    <trip id="randUni11478:1" type="random" depart="545.00" departPos="10.28" arrivalPos="5.94" arrivalSpeed="0.00" from="603496763" to="-620961511#1"/>
    <trip id="randUni5093:1" type="random" depart="584.00" departPos="75.50" arrivalPos="38.23" arrivalSpeed="0.00" from="-619857288#0" to="620965906"/>
    <trip id="randUni8077:1" type="random" depart="588.00" departPos="15.13" arrivalPos="11.45" arrivalSpeed="0.00" from="-152594373" to="-561369925#4"/>
    <trip id="randUni9227:1" type="random" depart="594.00" departPos="3.98" arrivalPos="13.85" arrivalSpeed="0.00" from="-224768015" to="-42935691#5"/>
    <trip id="randUni8987:1" type="random" depart="608.00" departPos="22.16" arrivalPos="54.52" arrivalSpeed="0.00" from="-661156227#3" to="611228555#0"/>
    <trip id="randUni12901:1" type="random" depart="619.00" departPos="56.02" arrivalPos="48.29" arrivalSpeed="0.00" from="-72197498" to="179859716"/>
    <trip id="randUni1125:1" type="random" depart="632.00" departPos="84.98" arrivalPos="26.06" arrivalSpeed="0.00" from="661156227#0" to="-179859653#4"/>
    <trip id="randUni10654:1" type="random" depart="636.00" departPos="214.06" arrivalPos="242.79" arrivalSpeed="0.00" from="611236703#3" to="619857262#0"/>
    <trip id="randUni14868:1" type="random" depart="640.00" departPos="114.96" arrivalPos="0.19" arrivalSpeed="0.00" from="-180427203" to="565856982#0"/>
    <trip id="randUni16513:1" type="random" depart="680.00" departPos="5.33" arrivalPos="26.05" arrivalSpeed="0.00" from="605079717" to="620975420"/>
    <trip id="randUni10166:1" type="random" depart="683.00" departPos="92.15" arrivalPos="9.37" arrivalSpeed="0.00" from="661156227#1" to="-620965391#4"/>
    <trip id="randUni924:1" type="random" depart="715.00" departPos="11.30" arrivalPos="27.47" arrivalSpeed="0.00" from="-556836432#1" to="556847734#0"/>
    <trip id="randUni14348:1" type="random" depart="753.00" departPos="93.20" arrivalPos="7.43" arrivalSpeed="0.00" from="179860793" to="-556851006"/>
    <trip id="randUni1612:1" type="random" depart="769.00" departPos="19.27" arrivalPos="82.46" arrivalSpeed="0.00" from="-619857305#1" to="-179875647#0"/>
    <trip id="randUni872:1" type="random" depart="781.00" departPos="246.47" arrivalPos="99.38" arrivalSpeed="0.00" from="701409316#2" to="-556841052#2"/>
    <trip id="randUni6312:1" type="random" depart="781.00" departPos="261.44" arrivalPos="14.17" arrivalSpeed="0.00" from="72197501#0" to="-380258836"/>
    <trip id="randUni6793:1" type="random" depart="788.00" departPos="13.04" arrivalPos="2.23" arrivalSpeed="0.00" from="-179861357#3" to="179141240"/>
    <trip id="randUni9796:1" type="random" depart="801.00" departPos="8.40" arrivalPos="37.29" arrivalSpeed="0.00" from="152183329#5" to="556838858#1"/>
    <trip id="randUni1955:1" type="random" depart="819.00" departPos="21.56" arrivalPos="51.89" arrivalSpeed="0.00" from="-1264552596#1" to="556847714#3"/>
    <trip id="randUni10064:1" type="random" depart="830.00" departPos="1.67" arrivalPos="51.41" arrivalSpeed="0.00" from="380256176" to="179859714"/>
    <trip id="randUni4612:1" type="random" depart="854.00" departPos="16.26" arrivalPos="9.78" arrivalSpeed="0.00" from="152183324" to="380681884"/>
    <trip id="randUni1897:1" type="random" depart="856.00" departPos="0.14" arrivalPos="63.11" arrivalSpeed="0.00" from="82220763#2-AddedOffRampEdge" to="-152587024#0"/>
    <trip id="randUni16786:1" type="random" depart="868.00" departPos="4.99" arrivalPos="60.02" arrivalSpeed="0.00" from="620962721#1" to="-126771594"/>
    <trip id="randUni12403:1" type="random" depart="872.00" departPos="9.66" arrivalPos="11.76" arrivalSpeed="0.00" from="179859653#6" to="179859667"/>
    <trip id="randUni1881:1" type="random" depart="877.00" departPos="16.66" arrivalPos="19.50" arrivalSpeed="0.00" from="-553633899#0" to="179859735#3"/>
    <trip id="randUni13172:1" type="random" depart="880.00" departPos="27.61" arrivalPos="175.95" arrivalSpeed="0.00" from="-179859698#1" to="559521687#1"/>
    <trip id="randUni5060:1" type="random" depart="882.00" departPos="87.33" arrivalPos="28.35" arrivalSpeed="0.00" from="-1228873749#0" to="385918347#4"/>
    <trip id="randUni6709:1" type="random" depart="883.00" departPos="12.48" arrivalPos="50.45" arrivalSpeed="0.00" from="-556851014#1" to="-179859740#1"/>
    <trip id="randUni1953:1" type="random" depart="884.00" departPos="62.07" arrivalPos="18.29" arrivalSpeed="0.00" from="-179859675" to="152183325#0"/>
    <trip id="randUni16587:1" type="random" depart="925.00" departPos="71.80" arrivalPos="17.24" arrivalSpeed="0.00" from="-553633912#0" to="-556847715#4"/>
    <trip id="randUni6778:1" type="random" depart="940.00" departPos="62.58" arrivalPos="38.51" arrivalSpeed="0.00" from="619847427#2" to="153756389"/>
    <trip id="randUni1631:1" type="random" depart="951.00" departPos="12.78" arrivalPos="41.96" arrivalSpeed="0.00" from="834361454#0" to="-701419450"/>
    <trip id="randUni5971:1" type="random" depart="957.00" departPos="134.07" arrivalPos="39.91" arrivalSpeed="0.00" from="619857251#9" to="-661156227#1"/>
    <trip id="randUni10405:1" type="random" depart="961.00" departPos="102.00" arrivalPos="14.18" arrivalSpeed="0.00" from="-180591703#1" to="-553633899#3"/>
    <trip id="randUni11165:1" type="random" depart="1000.00" departPos="3.27" arrivalPos="15.27" arrivalSpeed="0.00" from="620965906" to="153741116#4"/>
    <trip id="randUni11632:1" type="random" depart="1024.00" departPos="51.68" arrivalPos="8.10" arrivalSpeed="0.00" from="-619857274#0" to="1228873749#1"/>
    <trip id="randUni6666:1" type="random" depart="1044.00" departPos="23.68" arrivalPos="6.44" arrivalSpeed="0.00" from="152178380" to="-701400747#0"/>
    <trip id="randUni6848:1" type="random" depart="1044.00" departPos="4.96" arrivalPos="106.11" arrivalSpeed="0.00" from="-607757350" to="-619857288#1"/>
    <trip id="randUni4269:1" type="random" depart="1057.00" departPos="8.46" arrivalPos="40.78" arrivalSpeed="0.00" from="-556847714#2" to="-176427324"/>
    <trip id="randUni8192:1" type="random" depart="1057.00" departPos="55.00" arrivalPos="17.67" arrivalSpeed="0.00" from="553630721#5" to="621238445#0"/>
    <trip id="randUni4163:1" type="random" depart="1059.00" departPos="0.08" arrivalPos="42.90" arrivalSpeed="0.00" from="603487445#4" to="-556833283"/>
    <trip id="randUni14150:1" type="random" depart="1064.00" departPos="10.16" arrivalPos="3.40" arrivalSpeed="0.00" from="608424676" to="-619857299#2"/>
    <trip id="randUni13150:1" type="random" depart="1086.00" departPos="17.44" arrivalPos="62.72" arrivalSpeed="0.00" from="-556838858#0" to="620973107#1"/>
    <trip id="randUni1860:1" type="random" depart="1087.00" departPos="7.56" arrivalPos="4.51" arrivalSpeed="0.00" from="1261935896" to="619857254#8"/>
    <trip id="randUni639:1" type="random" depart="1091.00" departPos="16.96" arrivalPos="39.30" arrivalSpeed="0.00" from="152183325#0" to="386060599"/>
    <trip id="randUni6306:1" type="random" depart="1109.00" departPos="3.78" arrivalPos="26.24" arrivalSpeed="0.00" from="-179859699#1" to="-180568315"/>
    <trip id="randUni15857:1" type="random" depart="1116.00" departPos="12.15" arrivalPos="421.81" arrivalSpeed="0.00" from="701400747#0" to="552684646#0"/>
    <trip id="randUni15429:1" type="random" depart="1123.00" departPos="164.80" arrivalPos="21.21" arrivalSpeed="0.00" from="-179859678" to="-1258364570#2"/>
    <trip id="randUni16288:1" type="random" depart="1151.00" departPos="1.83" arrivalPos="19.05" arrivalSpeed="0.00" from="82862968" to="552686566#0"/>
    <trip id="randUni1896:1" type="random" depart="1165.00" departPos="55.83" arrivalPos="281.42" arrivalSpeed="0.00" from="126771575" to="559524362#3"/>
    <trip id="randUni386:1" type="random" depart="1167.00" departPos="62.44" arrivalPos="21.07" arrivalSpeed="0.00" from="620965662-AddedOffRampEdge" to="620965904#0"/>
    <trip id="randUni5198:1" type="random" depart="1170.00" departPos="36.04" arrivalPos="6.34" arrivalSpeed="0.00" from="-176418390" to="-1232279684#0"/>
    <trip id="randUni8723:1" type="random" depart="1192.00" departPos="4.65" arrivalPos="94.22" arrivalSpeed="0.00" from="560199777#8" to="179864695"/>
    <trip id="randUni1836:1" type="random" depart="1201.00" departPos="83.48" arrivalPos="16.50" arrivalSpeed="0.00" from="1258723312#0" to="179840602#0"/>
    <trip id="randUni4645:1" type="random" depart="1219.00" departPos="85.89" arrivalPos="5.92" arrivalSpeed="0.00" from="-620960661#1" to="605079722#0"/>
    <trip id="randUni8437:1" type="random" depart="1222.00" departPos="2.14" arrivalPos="1.74" arrivalSpeed="0.00" from="179862638" to="620960669"/>
    <trip id="randUni15062:1" type="random" depart="1256.00" departPos="19.06" arrivalPos="24.55" arrivalSpeed="0.00" from="126771598" to="179862633"/>
    <trip id="randUni12131:1" type="random" depart="1270.00" departPos="104.27" arrivalPos="6.22" arrivalSpeed="0.00" from="-180568315" to="-1280088279"/>
    <trip id="randUni6771:1" type="random" depart="1273.00" departPos="66.36" arrivalPos="94.88" arrivalSpeed="0.00" from="-553630721#3" to="-179864695"/>
    <trip id="randUni12852:1" type="random" depart="1277.00" departPos="0.12" arrivalPos="54.44" arrivalSpeed="0.00" from="-603487440" to="-620977818"/>
    <trip id="randUni5174:1" type="random" depart="1299.00" departPos="19.18" arrivalPos="2.40" arrivalSpeed="0.00" from="-1264552596#1" to="-603487438"/>
    <trip id="randUni15873:1" type="random" depart="1313.00" departPos="41.81" arrivalPos="52.69" arrivalSpeed="0.00" from="-126771583#0" to="619857244#0"/>
    <trip id="randUni16143:1" type="random" depart="1313.00" departPos="148.47" arrivalPos="25.62" arrivalSpeed="0.00" from="73813017" to="620962721#9"/>
    <trip id="randUni177:1" type="random" depart="1314.00" departPos="122.41" arrivalPos="9.39" arrivalSpeed="0.00" from="180427216" to="1124254057"/>
    <trip id="randUni6322:1" type="random" depart="1316.00" departPos="10.83" arrivalPos="41.97" arrivalSpeed="0.00" from="-556847728#0" to="1264867964"/>
    <trip id="randUni12511:1" type="random" depart="1351.00" departPos="54.83" arrivalPos="202.23" arrivalSpeed="0.00" from="82220759#1" to="-572277728#0"/>
    <trip id="randUni11710:1" type="random" depart="1367.00" departPos="18.56" arrivalPos="294.69" arrivalSpeed="0.00" from="1228873750#0" to="388742660#0"/>
    <trip id="randUni2458:1" type="random" depart="1371.00" departPos="36.71" arrivalPos="28.15" arrivalSpeed="0.00" from="568380204#1" to="553633899#5"/>
    <trip id="randUni7600:1" type="random" depart="1382.00" departPos="47.01" arrivalPos="1.43" arrivalSpeed="0.00" from="-179875651#1" to="-42935686#0"/>
    <trip id="randUni9654:1" type="random" depart="1399.00" departPos="7.14" arrivalPos="50.62" arrivalSpeed="0.00" from="-553633920#5" to="-556836445#0"/>
    <trip id="randUni2879:1" type="random" depart="1420.00" departPos="107.07" arrivalPos="89.74" arrivalSpeed="0.00" from="-179859739" to="179860764#0"/>
    <trip id="randUni13023:1" type="random" depart="1444.00" departPos="7.45" arrivalPos="6.25" arrivalSpeed="0.00" from="-559521697#2" to="-631925574#2"/>
    <trip id="randUni16042:1" type="random" depart="1459.00" departPos="39.85" arrivalPos="0.92" arrivalSpeed="0.00" from="620965906" to="553633912#1"/>
    <trip id="randUni6338:1" type="random" depart="1469.00" departPos="28.33" arrivalPos="23.79" arrivalSpeed="0.00" from="561369925#3" to="-1280088279"/>
    <trip id="randUni11988:1" type="random" depart="1480.00" departPos="118.97" arrivalPos="18.08" arrivalSpeed="0.00" from="-179860755#4" to="620962856#5"/>
    <trip id="randUni4327:1" type="random" depart="1486.00" departPos="0.02" arrivalPos="22.65" arrivalSpeed="0.00" from="-619853067" to="179840602#0"/>
    <trip id="randUni5141:1" type="random" depart="1519.00" departPos="184.14" arrivalPos="11.38" arrivalSpeed="0.00" from="179141127#4" to="-82930682"/>
    <trip id="randUni1842:1" type="random" depart="1533.00" departPos="30.96" arrivalPos="20.33" arrivalSpeed="0.00" from="619853061" to="620960663"/>
    <trip id="randUni2886:1" type="random" depart="1544.00" departPos="49.43" arrivalPos="318.66" arrivalSpeed="0.00" from="-619857288#0" to="621215898"/>
    <trip id="randUni7370:1" type="random" depart="1546.00" departPos="175.16" arrivalPos="110.64" arrivalSpeed="0.00" from="-556847714#3" to="-556850998#1"/>
    <trip id="randUni12122:1" type="random" depart="1547.00" departPos="35.56" arrivalPos="35.25" arrivalSpeed="0.00" from="-179862630#5" to="-552686566#3"/>
    <trip id="randUni9802:1" type="random" depart="1549.00" departPos="136.31" arrivalPos="14.99" arrivalSpeed="0.00" from="-556850999" to="-179860788#2"/>
    <trip id="randUni6012:1" type="random" depart="1551.00" departPos="11.51" arrivalPos="106.84" arrivalSpeed="0.00" from="600858441" to="1264867961#4"/>
    <trip id="randUni9715:1" type="random" depart="1574.00" departPos="8.86" arrivalPos="41.10" arrivalSpeed="0.00" from="619857285#2" to="-620973450#0"/>
    <trip id="randUni7748:1" type="random" depart="1591.00" departPos="21.10" arrivalPos="51.05" arrivalSpeed="0.00" from="1264653379#1" to="701419450"/>
    <trip id="randUni11827:1" type="random" depart="1607.00" departPos="41.26" arrivalPos="5.16" arrivalSpeed="0.00" from="621204153#2" to="179860791#1"/>
    <trip id="randUni8059:1" type="random" depart="1614.00" departPos="90.99" arrivalPos="9.16" arrivalSpeed="0.00" from="1124437812" to="607417856"/>
    <trip id="randUni9575:1" type="random" depart="1618.00" departPos="20.51" arrivalPos="0.01" arrivalSpeed="0.00" from="-179862654" to="556841069#4"/>
    <trip id="randUni3204:1" type="random" depart="1634.00" departPos="17.98" arrivalPos="73.24" arrivalSpeed="0.00" from="179859694#1" to="674564057#1"/>
    <trip id="randUni8395:1" type="random" depart="1635.00" departPos="14.42" arrivalPos="210.10" arrivalSpeed="0.00" from="-556851020" to="619857251#0"/>
    <trip id="randUni7670:1" type="random" depart="1646.00" departPos="33.89" arrivalPos="13.87" arrivalSpeed="0.00" from="-113757293#4" to="180427246#0"/>
    <trip id="randUni2955:1" type="random" depart="1654.00" departPos="59.52" arrivalPos="29.79" arrivalSpeed="0.00" from="553630708#0" to="1280954960#1"/>
    <trip id="randUni645:1" type="random" depart="1673.00" departPos="18.88" arrivalPos="13.47" arrivalSpeed="0.00" from="619857293#1" to="556836433#0"/>
    <trip id="randUni1389:1" type="random" depart="1679.00" departPos="114.40" arrivalPos="21.38" arrivalSpeed="0.00" from="179861361#0" to="600817915#4"/>
    <trip id="randUni11255:1" type="random" depart="1698.00" departPos="9.40" arrivalPos="2.19" arrivalSpeed="0.00" from="557074542" to="82930573"/>
    <trip id="randUni13116:1" type="random" depart="1704.00" departPos="6.48" arrivalPos="11.81" arrivalSpeed="0.00" from="179864688#4" to="386079204"/>
    <trip id="randUni3526:1" type="random" depart="1707.00" departPos="17.72" arrivalPos="27.85" arrivalSpeed="0.00" from="-380687737#1" to="-619857288#1"/>
    <trip id="randUni14893:1" type="random" depart="1720.00" departPos="85.78" arrivalPos="46.58" arrivalSpeed="0.00" from="611236703#5" to="152183329#10"/>
    <trip id="randUni24:1" type="random" depart="1744.00" departPos="164.28" arrivalPos="20.00" arrivalSpeed="0.00" from="621244554#1" to="-619847424#1"/>
    <trip id="randUni16532:1" type="random" depart="1767.00" departPos="70.07" arrivalPos="10.28" arrivalSpeed="0.00" from="-179859711" to="500733677"/>
    <trip id="randUni2813:1" type="random" depart="1771.00" departPos="21.95" arrivalPos="8.69" arrivalSpeed="0.00" from="-638000015" to="603487445#2"/>
    <trip id="randUni8119:1" type="random" depart="1781.00" departPos="9.15" arrivalPos="41.49" arrivalSpeed="0.00" from="82930732" to="-556833292#3"/>
    <trip id="randUni14910:1" type="random" depart="1787.00" departPos="43.61" arrivalPos="31.22" arrivalSpeed="0.00" from="179859709#0" to="385918354#3"/>
    <trip id="randUni12796:1" type="random" depart="1801.00" departPos="10.70" arrivalPos="12.51" arrivalSpeed="0.00" from="621244718#1" to="-126771583#0"/>
    <trip id="randUni7906:1" type="random" depart="1811.00" departPos="2.76" arrivalPos="15.08" arrivalSpeed="0.00" from="29418293#1" to="-179860760"/>
    <trip id="randUni12640:1" type="random" depart="1811.00" departPos="45.07" arrivalPos="0.19" arrivalSpeed="0.00" from="559521687#1-AddedOnRampEdge" to="620960673#1"/>
    <trip id="randUni1976:1" type="random" depart="1824.00" departPos="0.45" arrivalPos="5.53" arrivalSpeed="0.00" from="860381921#0" to="-42935691#0"/>
    <trip id="randUni3972:1" type="random" depart="1824.00" departPos="48.56" arrivalPos="4.85" arrivalSpeed="0.00" from="-620960660#3" to="179875768#1"/>
    <trip id="randUni7476:1" type="random" depart="1826.00" departPos="8.44" arrivalPos="3.47" arrivalSpeed="0.00" from="-153759592" to="603487435"/>
    <trip id="randUni6957:1" type="random" depart="1834.00" departPos="5.75" arrivalPos="0.83" arrivalSpeed="0.00" from="603487445#7" to="-620973115#3"/>
    <trip id="randUni8015:1" type="random" depart="1862.00" departPos="7.47" arrivalPos="71.08" arrivalSpeed="0.00" from="620973110#4" to="152183329#10.87"/>
    <trip id="randUni2923:1" type="random" depart="1870.00" departPos="22.48" arrivalPos="212.44" arrivalSpeed="0.00" from="179859666" to="620975542"/>
    <trip id="randUni13092:1" type="random" depart="1872.00" departPos="18.23" arrivalPos="4.69" arrivalSpeed="0.00" from="-619857283" to="620964806#2"/>
    <trip id="randUni10663:1" type="random" depart="1873.00" departPos="17.87" arrivalPos="0.57" arrivalSpeed="0.00" from="553633911#3" to="631925573#6"/>
    <trip id="randUni3515:1" type="random" depart="1875.00" departPos="165.89" arrivalPos="26.27" arrivalSpeed="0.00" from="559521676" to="-380279002#7"/>
    <trip id="randUni11076:1" type="random" depart="1883.00" departPos="0.18" arrivalPos="24.83" arrivalSpeed="0.00" from="670057891" to="553633899#2"/>
    <trip id="randUni9060:1" type="random" depart="1885.00" departPos="20.83" arrivalPos="42.46" arrivalSpeed="0.00" from="179840602#4" to="179860755#1"/>
    <trip id="randUni11417:1" type="random" depart="1894.00" departPos="160.83" arrivalPos="14.41" arrivalSpeed="0.00" from="-179859661" to="-179862631#1"/>
    <trip id="randUni12172:1" type="random" depart="1894.00" departPos="36.09" arrivalPos="5.54" arrivalSpeed="0.00" from="500733676#1" to="-556833292#2"/>
    <trip id="randUni6790:1" type="random" depart="1904.00" departPos="26.28" arrivalPos="21.41" arrivalSpeed="0.00" from="1022001260" to="674564056"/>
    <trip id="randUni5601:1" type="random" depart="1931.00" departPos="229.20" arrivalPos="17.85" arrivalSpeed="0.00" from="-552686565#1" to="-42935691#1"/>
    <trip id="randUni16366:1" type="random" depart="1976.00" departPos="246.82" arrivalPos="4.25" arrivalSpeed="0.00" from="179860766" to="147613386"/>
    <trip id="randUni11503:1" type="random" depart="1986.00" departPos="1.60" arrivalPos="17.70" arrivalSpeed="0.00" from="-556841069#1" to="-180575174#0"/>
    <trip id="randUni7771:1" type="random" depart="1998.00" departPos="58.62" arrivalPos="44.75" arrivalSpeed="0.00" from="1232279692" to="-619857288#0"/>
    <trip id="randUni12003:1" type="random" depart="2003.00" departPos="71.88" arrivalPos="39.20" arrivalSpeed="0.00" from="552686565#0" to="568380204#0"/>
    <trip id="randUni212:1" type="random" depart="2009.00" departPos="20.19" arrivalPos="107.20" arrivalSpeed="0.00" from="553633899#4" to="152586102#1"/>
    <trip id="randUni14180:1" type="random" depart="2016.00" departPos="70.87" arrivalPos="0.51" arrivalSpeed="0.00" from="-180591703#1" to="-619857274#0"/>
    <trip id="randUni1922:1" type="random" depart="2019.00" departPos="15.28" arrivalPos="0.08" arrivalSpeed="0.00" from="-620964808" to="385918363#1"/>
    <trip id="randUni4130:1" type="random" depart="2019.00" departPos="9.20" arrivalPos="131.73" arrivalSpeed="0.00" from="-702538493" to="153741116#0"/>
    <trip id="randUni12872:1" type="random" depart="2039.00" departPos="16.22" arrivalPos="19.93" arrivalSpeed="0.00" from="380256178" to="-386094811#2"/>
    <trip id="randUni12406:1" type="random" depart="2045.00" departPos="108.52" arrivalPos="2.03" arrivalSpeed="0.00" from="179859685#0" to="553630734#2"/>
    <trip id="randUni11086:1" type="random" depart="2049.00" departPos="129.29" arrivalPos="13.32" arrivalSpeed="0.00" from="179860748#0" to="-179859673"/>
    <trip id="randUni11845:1" type="random" depart="2068.00" departPos="54.56" arrivalPos="0.18" arrivalSpeed="0.00" from="-638000020" to="385931207#0"/>